%chk=IsoP_rdkit_03_192_gaussian.chk
%nproc=6
%mem=4000Mb
#p opt=loose m062x/6-31g(d,p)

Conformer number 192. Energy MM = 23.486 kcal/mol

0 1
C  -1.1713    1.1371    0.2805
H  -1.7275    2.0753    0.4096
H  -1.2047    0.6582    1.2652
C  -1.8920    0.3047    -0.7639
C  -2.3444    1.0651    -1.9853
H  -2.9027    0.4331    -2.6842
H  -1.4844    1.4722    -2.5257
H  -2.9993    1.8935    -1.6961
C  -2.1631    -1.0106    -0.6451
H  -2.7075    -1.5034    -1.4503
C  -1.7869    -1.9296    0.4741
H  -2.6905    -2.2981    0.9692
H  -1.2446    -2.7911    0.0712
H  -1.1487    -1.4667    1.2290
C  2.9203    -1.3487    0.5981
H  3.9838    -1.0897    0.6268
H  2.7197    -1.8221    -0.3688
H  2.7207    -2.0902    1.3786
C  2.0790    -0.1187    0.8192
C  2.3242    0.5707    2.1325
H  2.2318    -0.1459    2.9559
H  3.3348    0.9911    2.1539
H  1.6186    1.3790    2.3370
C  1.1859    0.2757    -0.1093
H  1.0826    -0.3216    -1.0157
C  0.2835    1.4808    -0.0717
H  0.3316    1.9753    -1.0496
H  0.6514    2.2247    0.6424

