%chk=IsoP_rdkit_03_393_gaussian.chk
%nproc=6
%mem=4000Mb
#p opt=loose m062x/6-31g(d,p)

Conformer number 393. Energy MM = 23.486 kcal/mol

0 1
C  -1.2240    -0.8087    0.8714
H  -1.8555    -1.3595    1.5814
H  -0.7980    -1.5820    0.2227
C  -2.1145    0.1396    0.0899
C  -3.1226    0.8967    0.9177
H  -2.6180    1.5480    1.6378
H  -3.7737    1.5278    0.3035
H  -3.7637    0.1994    1.4669
C  -2.0726    0.3068    -1.2472
H  -2.7766    1.0006    -1.7061
C  -1.1425    -0.3380    -2.2258
H  -0.3665    -0.9483    -1.7602
H  -0.6401    0.4359    -2.8150
H  -1.7108    -0.9727    -2.9127
C  2.7497    -1.2276    0.9304
H  3.1059    -1.8079    0.0723
H  2.0347    -1.8586    1.4631
H  3.5984    -1.0423    1.5967
C  2.1646    0.0763    0.4640
C  3.0749    0.8810    -0.4266
H  4.0043    1.1208    0.1003
H  3.3224    0.3127    -1.3292
H  2.6196    1.8253    -0.7432
C  0.9331    0.5282    0.7713
H  0.6117    1.4824    0.3526
C  -0.0968    -0.1225    1.6568
H  0.3662    -0.8584    2.3222
H  -0.5097    0.6451    2.3228

