%chk=IsoP_rdkit_03_356_gaussian.chk
%nproc=6
%mem=4000Mb
#p opt=loose m062x/6-31g(d,p)

Conformer number 356. Energy MM = 23.287 kcal/mol

0 1
C  -0.7766    -0.5955    0.1574
H  -1.1351    -0.8646    1.1582
H  -0.1644    -1.4498    -0.1615
C  -1.9384    -0.4379    -0.8018
C  -1.6169    -0.7305    -2.2453
H  -2.4894    -0.6129    -2.8966
H  -0.8392    -0.0520    -2.6098
H  -1.2599    -1.7599    -2.3534
C  -3.1879    -0.0900    -0.4356
H  -3.9577    -0.0274    -1.2043
C  -3.6725    0.2552    0.9369
H  -2.8701    0.3433    1.6727
H  -4.3788    -0.5052    1.2838
H  -4.1947    1.2170    0.9078
C  3.0913    0.0988    -0.4497
H  3.7605    0.9315    -0.6891
H  3.6666    -0.8318    -0.5030
H  2.3290    0.0434    -1.2301
C  2.5211    0.2743    0.9308
C  3.5361    0.1661    2.0388
H  3.0883    0.3057    3.0284
H  4.3132    0.9276    1.9157
H  4.0098    -0.8210    2.0247
C  1.2220    0.4986    1.2090
H  0.9229    0.5910    2.2533
C  0.0883    0.6668    0.2328
H  -0.5214    1.5157    0.5684
H  0.4541    0.9436    -0.7610

