%chk=nitrobenzene_sdf_00041_gaussian.chk
%nproc=4
%mem=4000Mb
#p 6-31g* mp2

Conformer number 00041. Energy MM = 21.619 kcal/mol

0 1
O  2.3295    -1.1002    -0.0954
N  1.7579    -0.0024    -0.0488
O  2.3342    1.0940    -0.0341
C  0.3075    -0.0004    -0.0085
C  -0.3748    -1.2148    -0.0237
C  -0.3697    1.2158    0.0443
C  -1.7661    -1.2070    0.0151
C  -2.4575    0.0033    0.0682
C  -1.7610    1.2117    0.0828


