%chk=PET_007_gaussian.chk
%nproc=4
%mem=4000Mb
#p 6-31g* mp2

Conformer number 007. Energy MM = 71.223 kcal/mol

0 1
C  -0.7319    1.8820    2.0823
C  -2.6007    0.3662    -0.8711
H  -2.4694    0.2354    -1.9445
C  -1.6068    1.0199    -0.1339
H  -0.7228    1.3830    -0.6533
C  -1.7575    1.1985    1.2477
C  -2.9117    0.7160    1.8806
H  -3.0435    0.8467    2.9539
C  -3.9056    0.0626    1.1431
H  -4.7899    -0.3006    1.6621
C  -3.7551    -0.1161    -0.2384
O  -4.6583    -0.9806    -2.2748
C  -4.7782    -0.8045    -1.0728
O  -5.8317    -1.1935    -0.3133
O  0.3068    2.2967    1.3179
O  -0.8330    2.0288    3.2898
C  -6.8659    -1.8648    -1.0433
H  -6.4620    -2.7713    -1.5078
H  -7.2645    -1.1989    -1.8169
C  -7.9672    -2.2354    -0.0693
H  -8.3667    -1.3406    0.4194
H  -7.5789    -2.8842    0.7228
H  -8.7834    -2.7526    -0.5814
C  6.1313    -2.1852    -2.7503
C  3.8983    -0.7032    -0.0539
H  3.0347    -1.0015    0.5364
C  4.4266    -1.6101    -0.9803
H  3.9631    -2.5885    -1.0875
C  5.5379    -1.2576    -1.7566
C  6.1171    0.0076    -1.6003
H  6.9813    0.2938    -2.1978
C  5.5892    0.9136    -0.6750
H  6.0509    1.8939    -0.5653
C  4.4773    0.5640    0.1039
O  4.4296    2.6819    1.2127
C  3.9537    1.5670    1.0714
O  2.8904    1.0685    1.7473
O  5.4894    -3.3649    -2.8100
O  7.0929    -1.9506    -3.4580
C  2.2925    1.9594    2.7092
H  3.0688    2.4676    3.2929
H  1.7292    1.3250    3.4002
C  1.3697    2.9670    2.0233
H  1.9157    3.5440    1.2709
H  0.9574    3.6811    2.7456
H  5.9809    -3.8658    -3.4948
