%chk=02-IsoP_012_gaussian.chk
%nproc=1
%mem=1000Mb
#p opt pm3

Conformer number 012. Energy MM = 23.287 kcal/mol

0 1
C  -0.8541    0.4780    0.1504
H  -0.3565    1.4304    -0.0773
H  -1.2954    0.6220    1.1439
C  -1.9335    0.2279    -0.8825
C  -1.5882    0.6651    -2.2833
H  -1.3783    1.7395    -2.3046
H  -0.7044    0.1303    -2.6448
H  -2.4023    0.4732    -2.9902
C  -3.1361    -0.3171    -0.6122
H  -3.8510    -0.4319    -1.4266
C  -3.6316    -0.8239    0.7051
H  -4.0080    -1.8450    0.5845
H  -4.4558    -0.1969    1.0584
H  -2.8612    -0.8510    1.4790
C  3.4276    0.1965    2.2258
H  2.9574    -0.0749    3.1769
H  4.3112    -0.4377    2.0995
H  3.7545    1.2387    2.3022
C  2.4934    0.0264    1.0562
C  3.0982    0.3783    -0.2749
H  3.5356    1.3819    -0.2353
H  2.3744    0.3819    -1.0930
H  3.8910    -0.3330    -0.5278
C  1.2282    -0.3972    1.2439
H  0.8955    -0.6049    2.2611
C  0.1788    -0.6526    0.1950
H  0.6281    -0.8037    -0.7916
H  -0.3178    -1.6004    0.4399

