%chk=PET_043_gaussian.chk
%nproc=4
%mem=4000Mb
#p 6-31g* mp2

Conformer number 043. Energy MM = 71.666 kcal/mol

0 1
C  -1.0205    1.6536    -2.0570
C  -4.0198    -0.1946    -0.6955
H  -4.9465    -0.5984    -1.0970
C  -3.1322    0.4492    -1.5653
H  -3.3866    0.5320    -2.6212
C  -1.9278    0.9832    -1.0860
C  -1.6191    0.8661    0.2757
H  -0.6926    1.2701    0.6777
C  -2.5066    0.2220    1.1453
H  -2.2527    0.1394    2.2014
C  -3.7113    -0.3120    0.6663
O  -4.3566    -1.1054    2.8243
C  -4.6161    -0.9869    1.6375
O  -5.7366    -1.4300    1.0160
O  0.0855    2.1231    -1.4313
O  -1.2596    1.7472    -3.2502
C  -6.6904    -2.1013    1.8529
H  -6.1925    -2.7185    2.6095
H  -7.2596    -2.7793    1.2084
C  -7.6292    -1.0929    2.4880
H  -8.1186    -0.4860    1.7192
H  -7.0827    -0.4027    3.1385
H  -8.3970    -1.5977    3.0811
C  6.4460    -2.0519    2.1289
C  3.8868    -0.7351    -0.3550
H  2.9709    -1.0771    -0.8319
C  4.5394    -1.5900    0.5410
H  4.1171    -2.5730    0.7385
C  5.7207    -1.1805    1.1724
C  6.2448    0.0894    0.9019
H  7.1625    0.4196    1.3863
C  5.5928    0.9435    0.0068
H  6.0130    1.9282    -0.1930
C  4.4105    0.5368    -0.6272
O  4.1826    2.6043    -1.8064
C  3.7555    1.4860    -1.5684
O  2.6372    0.9359    -2.1001
O  5.8465    -3.2419    2.3073
O  7.4741    -1.7665    2.7137
C  1.9119    1.7719    -3.0229
H  2.6042    2.2722    -3.7099
H  1.2923    1.0965    -3.6205
C  1.0447    2.7867    -2.2777
H  0.5353    3.4603    -2.9765
H  1.6555    3.4069    -1.6148
H  6.4246    -3.7023    2.9516
