%chk=AtacPS_uff_000_gaussian.chk
%nproc=4
%mem=4000Mb
#p 6-31g* mp2

Conformer number 000. Energy MM = 115.201 kcal/mol

0 1
C          5.34560        1.99900       -8.60240
C          6.70210        1.96310       -8.22230
H          7.21100        2.86350       -7.90400
C          7.41320        0.76020       -8.24860
H          8.45490        0.74170       -7.95510
C          6.78180       -0.41840       -8.65150
H          7.33380       -1.34920       -8.66910
C          5.43780       -0.39600       -9.03070
H          4.94920       -1.31040       -9.34160
C          4.72180        0.80440       -9.00850
H          3.68090        0.80020       -9.30470
C          4.55330        3.29560       -8.57020
H          3.51530        3.10660       -8.92390
C          5.16190        4.32050       -9.53560
H          6.19710        4.59020       -9.23930
H          5.17920        3.90630      -10.56660
H          4.54710        5.24580       -9.54510
C          2.35740        2.62390       -6.52580
C          1.40240        3.65390       -6.59100
H          1.67660        4.67410       -6.35500
C          0.08460        3.37200       -6.96160
H         -0.64520        4.16990       -7.01100
C         -0.29170        2.06240       -7.27000
H         -1.31200        1.84670       -7.55940
C          0.64880        1.03120       -7.20350
H          0.35650        0.01720       -7.44250
C          1.96790        1.30780       -6.83040
H          2.68430        0.49710       -6.78650
C          3.78440        2.92860       -6.13600
H          3.78550        3.39490       -5.12740
H          4.37940        1.99190       -6.06530
C          4.47200        3.87830       -7.13750
H          5.49400        4.10550       -6.76480
H          3.91320        4.83860       -7.16470

