%chk=IsoP_uff_000_gaussian.chk
%nproc=4
%mem=4000Mb
#p 6-31g* mp2

Conformer number 000. Energy MM = 57.571 kcal/mol

0 1
C          2.16710        1.34660       -8.93650
H          1.82160        0.32820       -9.22380
H          2.04240        2.00800       -9.82150
C          3.63400        1.32850       -8.54970
C          4.31990        2.63630       -8.22860
H          5.16640        2.80010       -8.92830
H          3.62830        3.49650       -8.34070
H          4.69460        2.62310       -7.18360
C          4.29930        0.15010       -8.51330
H          3.76930       -0.76670       -8.75640
C          5.75300       -0.00960       -8.15320
H          6.25800        0.94570       -7.90980
H          5.83560       -0.67750       -7.27100
H          6.28780       -0.47550       -9.00660
C         -2.39530        2.81190       -8.67840
H         -2.66360        1.76810       -8.94790
H         -3.06660        3.14370       -7.85870
H         -2.56480        3.45520       -9.56750
C         -0.96030        2.93810       -8.23480
C         -0.46260        4.30590       -7.84070
H          0.37930        4.60750       -8.49920
H         -1.26720        5.06510       -7.94020
H         -0.12650        4.29790       -6.78230
C         -0.16640        1.84230       -8.20390
H         -0.58150        0.88280       -8.50160
C          1.28520        1.84030       -7.78210
H          1.61900        2.84530       -7.46200
H          1.39770        1.15670       -6.91320

