%chk=IsoP_uff_013_gaussian.chk
%nproc=4
%mem=4000Mb
#p 6-31g* mp2

Conformer number 013. Energy MM = 53.882 kcal/mol

0 1
C          2.16400        1.53860       -9.00010
H          1.82720        0.59410       -9.48320
H          2.04280        2.35960       -9.74020
C          3.62910        1.44740       -8.61350
C          4.30410        2.65170       -7.99930
H          5.15270        2.97630       -8.63750
H          3.60790        3.51060       -7.91380
H          4.67480        2.40130       -6.98290
C          4.30540        0.29660       -8.84350
H          3.78570       -0.54410       -9.29490
C          5.76040        0.07030       -8.52670
H          6.25640        0.94690       -8.06620
H          5.84910       -0.78510       -7.82490
H          6.29910       -0.17900       -9.46400
C         -2.61890        2.16110       -7.80210
H         -2.70170        1.96800       -8.89320
H         -3.21410        1.39220       -7.26670
H         -3.04850        3.16320       -7.59190
C         -1.19140        2.11540       -7.32110
C         -0.92350        2.35690       -5.85670
H         -0.27100        3.24590       -5.73160
H         -1.87020        2.54410       -5.30690
H         -0.42980        1.46960       -5.40730
C         -0.19060        1.86760       -8.19380
H         -0.43510        1.70960       -9.24200
C          1.26230        1.80150       -7.78490
H          1.54250        2.76500       -7.31170
H          1.39510        0.98190       -7.04550

