%chk=IsoP_uff_008_gaussian.chk
%nproc=4
%mem=4000Mb
#p 6-31g* mp2

Conformer number 008. Energy MM = 71.075 kcal/mol

0 1
C          2.13980        1.35130       -8.95580
H          1.78090        0.36510       -9.32390
H          2.04860        2.06170       -9.79650
C          3.60260        1.27350       -8.56930
C          4.31040       -0.05990       -8.62250
H          4.69580       -0.32260       -7.61450
H          3.62930       -0.87400       -8.94610
H          5.15380       -0.01340       -9.34360
C          4.24470        2.40720       -8.20070
H          3.69390        3.34370       -8.19050
C          5.69450        2.49150       -7.80440
H          6.21850        1.51620       -7.83120
H          6.21660        3.18430       -8.49670
H          5.76420        2.89550       -6.77360
C         -2.25480        2.80060       -9.10640
H         -2.73980        1.88250       -8.71140
H         -2.74610        3.68170       -8.64330
H         -2.41650        2.83240      -10.20480
C         -0.77600        2.83820       -8.81830
C         -0.00240        4.04480       -9.29510
H          0.77570        3.76840      -10.02780
H         -0.67710        4.76900       -9.79850
H          0.46530        4.56000       -8.43000
C         -0.20220        1.82780       -8.12200
H         -0.83190        1.01830       -7.76040
C          1.26060        1.74620       -7.75640
H          1.57770        2.69880       -7.28270
H          1.37960        0.94020       -6.99940

