%chk=PET_uff_104_gaussian.chk
%nproc=4
%mem=4000Mb
#p 6-31g* mp2

Conformer number 104. Energy MM = 188.821 kcal/mol

0 1
C         -1.40080        0.31080        2.31700
C         -2.73890        2.44610       -0.51820
H         -3.06310        3.46910       -0.66300
C         -2.29510        2.05200        0.74850
H         -2.29000        2.77950        1.55050
C         -1.86990        0.73260        0.97550
C         -1.89570       -0.18390       -0.09000
H         -1.57330       -1.20790        0.05220
C         -2.32860        0.21210       -1.35670
H         -2.32950       -0.51760       -2.15680
C         -2.75570        1.53030       -1.58540
O         -3.62120        3.07630       -3.12950
C         -3.20980        1.93970       -2.93650
O         -3.14380        1.05070       -3.96130
O         -1.26160        1.22910        3.31220
O         -1.10840       -0.86150        2.51640
C         -3.53380        1.32550       -5.25520
H         -4.62000        1.56220       -5.27960
H         -2.95900        2.19290       -5.64740
C         -3.25820        0.11380       -6.13230
H         -3.82460       -0.76530       -5.75830
H         -2.17240       -0.12210       -6.12050
H         -3.56820        0.32710       -7.17680
C         -0.56800       -3.36430       12.16310
C         -2.99450       -1.81250        9.69080
H         -4.06690       -1.70790        9.58340
C         -2.49170       -2.47770       10.81270
H         -3.18920       -2.86860       11.54310
C         -1.10610       -2.64350       10.98310
C         -0.23470       -2.12130       10.01300
H          0.83750       -2.23350       10.11430
C         -0.73710       -1.45250        8.89330
H         -0.03910       -1.06870        8.15990
C         -2.12220       -1.29500        8.71780
O         -3.85680       -0.53950        7.32550
C         -2.64860       -0.61360        7.51100
O         -1.78440       -0.09900        6.59910
O          0.76440       -3.53610       12.30420
O         -1.32580       -3.81660       13.00940
C         -2.15220        0.30460        5.33190
H         -2.52530       -0.58020        4.77230
H         -2.95980        1.06810        5.38510
C         -0.94470        0.90920        4.61970
H         -0.07770        0.21160        4.63890
H         -0.64880        1.83500        5.15770
H          1.13560       -4.01250       13.06030

