%chk=PET_uff_008_gaussian.chk
%nproc=4
%mem=4000Mb
#p 6-31g* mp2

Conformer number 008. Energy MM = 200.579 kcal/mol

0 1
C         -1.45560        0.27160        2.32300
C         -3.73610       -0.01180       -0.69180
H         -4.01130       -0.77220       -1.41190
C         -2.79330       -0.32610        0.28850
H         -2.37060       -1.32320        0.30050
C         -2.41740        0.62730        1.25280
C         -2.99730        1.90440        1.20680
H         -2.73210        2.65760        1.93820
C         -3.93510        2.22240        0.21920
H         -4.36690        3.21550        0.21150
C         -4.31770        1.26620       -0.73730
O         -5.66870        0.75440       -2.58940
C         -5.31960        1.60230       -1.77810
O         -5.83620        2.85680       -1.83520
O         -1.18590        1.15720        3.32080
O         -0.96290       -0.84820        2.35030
C         -6.73950        3.27390       -2.79090
H         -6.29580        3.15320       -3.80370
H         -7.67050        2.66960       -2.72360
C         -7.07210        4.74070       -2.56870
H         -6.14750        5.35280       -2.63680
H         -7.52840        4.88010       -1.56580
H         -7.78910        5.08380       -3.34380
C         -7.03930       -4.23020        1.30390
C         -6.06820       -2.36710        4.47090
H         -6.51530       -2.12710        5.42740
C         -6.80370       -3.12370        3.55100
H         -7.79930       -3.45180        3.82190
C         -6.26200       -3.44310        2.29250
C         -4.96870       -2.99910        1.97870
H         -4.52050       -3.22730        1.01960
C         -4.23640       -2.24770        2.89850
H         -3.24790       -1.92220        2.62320
C         -4.77560       -1.91610        4.15160
O         -4.46750       -0.77680        6.18700
C         -3.99480       -1.08070        5.09990
O         -2.78420       -0.59650        4.71900
O         -6.51050       -4.51040        0.09230
O         -8.16550       -4.62270        1.57390
C         -2.07780        0.37870        5.39560
H         -2.71940        1.28270        5.49220
H         -1.79560        0.02500        6.41080
C         -0.82530        0.76990        4.60140
H         -0.09140       -0.06540        4.56910
H         -0.34100        1.62550        5.11730
H         -7.00280       -5.01280       -0.57210

