%chk=PET_uff_068_gaussian.chk
%nproc=4
%mem=4000Mb
#p 6-31g* mp2

Conformer number 068. Energy MM = 180.355 kcal/mol

0 1
C         -1.69650        0.04570        2.30160
C         -3.85600       -0.08310       -0.81430
H         -4.14330       -0.81760       -1.55620
C         -2.98480       -0.46630        0.20890
H         -2.62260       -1.48650        0.23090
C         -2.59390        0.45510        1.19530
C         -3.08770        1.76930        1.13390
H         -2.80880        2.50130        1.88090
C         -3.96210        2.15110        0.11260
H         -4.33210        3.16870        0.09810
C         -4.35860        1.22880       -0.87010
O         -5.64110        0.82710       -2.79650
C         -5.30260        1.63360       -1.94020
O         -5.80550        2.89560       -1.95230
O         -1.31980        0.95970        3.23400
O         -1.32010       -1.11600        2.38900
C         -6.72590        3.34970       -2.87510
H         -6.30260        3.27340       -3.90050
H         -7.65250        2.73780       -2.81380
C         -7.06850        4.80130       -2.57980
H         -6.15430        5.42880       -2.64530
H         -7.49930        4.89060       -1.55970
H         -7.81200        5.16820       -3.31810
C         -8.15250        4.68650        6.42710
C         -6.25550        1.45140        7.02400
H         -6.39370        0.53650        7.58680
C         -7.24970        2.43380        7.07900
H         -8.12970        2.25160        7.68250
C         -7.10510        3.63760        6.36620
C         -5.94850        3.83500        5.59450
H         -5.80780        4.75030        5.03300
C         -4.95440        2.85440        5.54070
H         -4.07420        3.04010        4.93810
C         -5.09540        1.65310        6.25690
O         -4.15410       -0.43100        6.80980
C         -4.02770        0.62380        6.20200
O         -2.90470        0.86960        5.48130
O         -7.99810        5.84180        5.74390
O         -9.15860        4.51670        7.10130
C         -1.83560        0.00480        5.36390
H         -1.39750       -0.19540        6.36580
H         -2.17590       -0.95660        4.92170
C         -0.77760        0.64980        4.46730
H          0.10710       -0.01360        4.35110
H         -0.44220        1.59290        4.94900
H         -8.66620        6.54130        5.77510

