%chk=PET_uff_124_gaussian.chk
%nproc=4
%mem=4000Mb
#p 6-31g* mp2

Conformer number 124. Energy MM = 197.858 kcal/mol

0 1
C         -1.59360        0.20830        2.28070
C         -1.75010       -0.22890       -1.48730
H         -2.10130       -0.97140       -2.19320
C         -1.92060       -0.46590       -0.11930
H         -2.39740       -1.38550        0.19670
C         -1.46580        0.46810        0.82730
C         -0.84790        1.64680        0.37740
H         -0.48210        2.38430        1.08090
C         -0.67420        1.88180       -0.98760
H         -0.18240        2.79470       -1.29890
C         -1.11780        0.94470       -1.93510
O         -1.29470        0.37610       -4.20650
C         -0.89980        1.18920       -3.38140
O         -0.24630        2.31320       -3.78100
O         -1.12620        1.12950        3.16320
O         -2.06540       -0.84790        2.68050
C          0.14450        2.59480       -5.07710
H         -0.73060        2.54860       -5.76080
H          0.55160        3.62770       -5.10140
C          1.24450        1.64220       -5.54450
H          0.88380        0.59330       -5.55970
H          2.12060        1.71310       -4.86520
H          1.56430        1.91830       -6.57120
C          4.09290       -0.77550       11.52930
C          3.73950       -1.54930        7.83220
H          4.28300       -2.10660        7.07900
C          4.23620       -1.52490        9.13750
H          5.14850       -2.06550        9.35830
C          3.56470       -0.80870       10.14350
C          2.38490       -0.11940        9.81480
H          1.84490        0.44200       10.56690
C          1.88850       -0.14290        8.50810
H          0.97940        0.40150        8.28510
C          2.56130       -0.85690        7.50310
O          2.64580       -1.48650        5.24520
C          2.04400       -0.86760        6.11390
O          0.92460       -0.16350        5.79980
O          3.44210       -0.08020       12.48720
O          5.12090       -1.37300       11.81310
C          0.46950       -0.01600        4.50560
H          1.26390        0.47370        3.89930
H          0.24180       -1.01190        4.06690
C         -0.77650        0.86920        4.47410
H         -0.53130        1.83700        4.96080
H         -1.62090        0.40130        5.02660
H          3.77180       -0.04330       13.39640

