%chk=PET_uff_016_gaussian.chk
%nproc=4
%mem=4000Mb
#p 6-31g* mp2

Conformer number 016. Energy MM = 208.703 kcal/mol

0 1
C         -1.36450       -0.05290        2.47230
C         -0.38230       -1.20220       -1.00530
H         -0.57330       -2.05240       -1.64810
C         -0.99300       -1.15890        0.25050
H         -1.63900       -1.97660        0.54510
C         -0.76270       -0.07820        1.11850
C          0.08450        0.96220        0.70130
H          0.28860        1.80450        1.35110
C          0.70450        0.91320       -0.55030
H          1.36640        1.72150       -0.83530
C          0.48170       -0.17170       -1.41510
O          0.94250       -1.17060       -3.48870
C          1.16730       -0.23800       -2.72860
O          2.06430        0.72590       -3.06990
O         -1.19270        1.03560        3.26600
O         -1.97140       -1.02890        2.89230
C          2.87680        0.69910       -4.18920
H          2.26110        0.59200       -5.10830
H          3.42400        1.66370       -4.24610
C          3.90870       -0.42610       -4.10070
H          3.41560       -1.41920       -4.06530
H          4.53060       -0.30000       -3.18900
H          4.56960       -0.39670       -4.99230
C          5.96470        5.23820        2.29850
C          4.84170        2.02350        3.98410
H          5.30230        1.14100        4.40990
C          5.66170        3.01550        3.43470
H          6.73530        2.87360        3.45070
C          5.10050        4.17840        2.87470
C          3.70470        4.32440        2.87110
H          3.24140        5.20630        2.44800
C          2.88600        3.33220        3.41640
H          1.81320        3.47860        3.39820
C          3.44430        2.17260        3.98140
O          3.03410        0.13400        5.08790
C          2.55970        1.13380        4.56610
O          1.21610        1.30430        4.50250
O          5.41210        6.35430        1.77540
O          7.18130        5.11140        2.29790
C          0.26850        0.45750        5.04050
H          0.40460       -0.57100        4.63930
H          0.36590        0.43300        6.14730
C         -1.11120        0.98260        4.64450
H         -1.21810        2.01240        5.04690
H         -1.92600        0.35760        5.07100
H          5.95650        7.06110        1.40010

