%chk=PET_uff_048_gaussian.chk
%nproc=4
%mem=4000Mb
#p 6-31g* mp2

Conformer number 048. Energy MM = 206.907 kcal/mol

0 1
C         -1.84800        0.07980        2.57740
C         -4.75420       -0.67010        0.25710
H         -5.04750       -1.45500       -0.42880
C         -3.52830       -0.77940        0.92000
H         -2.90670       -1.64610        0.73070
C         -3.11900        0.21220        1.82720
C         -3.95390        1.31980        2.04920
H         -3.66950        2.09790        2.74680
C         -5.18210        1.42520        1.39310
H         -5.80920        2.28360        1.59950
C         -5.59880        0.42920        0.49450
O         -7.27800       -0.33930       -0.95530
C         -6.91960        0.53080       -0.17300
O         -7.74820        1.56530        0.13390
O         -1.47200        1.06710        3.43030
O         -1.17400       -0.93670        2.47580
C         -9.01400        1.76240       -0.38730
H         -9.64020        0.85880       -0.21990
H         -9.48310        2.61230        0.15180
C         -8.96330        2.11390       -1.87230
H         -8.52320        1.28630       -2.46470
H         -8.35670        3.03180       -2.02220
H         -9.99360        2.29990       -2.24220
C         -7.80170        4.91600        5.86320
C         -4.29740        3.94540        6.95000
H         -3.50580        4.36750        7.55640
C         -5.48950        4.66090        6.80870
H         -5.58680        5.61540        7.31070
C         -6.53890        4.15260        6.02360
C         -6.37130        2.90990        5.38810
H         -7.16020        2.49280        4.77460
C         -5.17960        2.19220        5.53270
H         -5.07970        1.24090        5.02490
C         -4.12880        2.70360        6.31330
O         -1.92220        2.43730        7.07350
C         -2.85410        1.95470        6.44370
O         -2.71690        0.74390        5.84080
O         -8.79980        4.42570        5.09630
O         -7.94570        5.99550        6.41910
C         -1.51040        0.10450        5.61010
H         -0.93680       -0.00980        6.55530
H         -1.72780       -0.91130        5.21760
C         -0.69780        0.87570        4.55840
H          0.24680        0.34450        4.31020
H         -0.43090        1.87100        4.96930
H         -9.62790        4.91190        4.97440

