%chk=PET_uff_115_gaussian.chk
%nproc=4
%mem=4000Mb
#p 6-31g* mp2

Conformer number 115. Energy MM = 207.433 kcal/mol

0 1
C         -1.60320        0.12560        2.34720
C         -0.61310       -0.93180       -1.15960
H         -0.91670       -1.67400       -1.88740
C         -1.30320       -0.85690        0.05410
H         -2.12040       -1.54400        0.23480
C         -0.92720        0.08220        1.02920
C          0.14250        0.95210        0.76110
H          0.46090        1.68180        1.49410
C          0.83730        0.87160       -0.44660
H          1.66950        1.54460       -0.61300
C          0.47220       -0.07570       -1.41740
O          0.91210       -0.99290       -3.53500
C          1.24140       -0.18050       -2.68100
O          2.33920        0.59800       -2.86220
O         -1.20730        1.04170        3.26620
O         -2.43920       -0.71730        2.64190
C          3.17410        0.51590       -3.95710
H          3.59990       -0.50980       -4.02780
H          2.60670        0.74280       -4.88550
C          4.31260        1.51210       -3.80150
H          4.88990        1.28820       -2.87890
H          3.90840        2.54440       -3.73580
H          4.99270        1.44440       -4.67650
C          6.54190        3.16080        1.23650
C          4.83040        0.23970        2.95260
H          5.07800       -0.77660        3.23230
C          5.79640        1.01510        2.30170
H          6.76550        0.57740        2.09740
C          5.51380        2.33830        1.92180
C          4.24350        2.86900        2.20310
H          3.99410        3.88510        1.92380
C          3.27830        2.09410        2.85110
H          2.31050        2.53530        3.05370
C          3.56040        0.77170        3.23500
O          2.77060       -1.18440        4.28100
C          2.52530       -0.03990        3.92410
O          1.29410        0.49240        4.12420
O          7.76130        2.64340        0.97190
O          6.29410        4.31270        0.90960
C          0.23040       -0.14820        4.72880
H          0.03330       -1.11350        4.21190
H          0.45780       -0.35090        5.79730
C         -1.00370        0.74840        4.60110
H         -0.80600        1.69720        5.14400
H         -1.90170        0.26810        5.04720
H          8.44580        3.16500        0.52880

