%chk=PET_uff_040_gaussian.chk
%nproc=4
%mem=4000Mb
#p 6-31g* mp2

Conformer number 040. Energy MM = 202.088 kcal/mol

0 1
C         -1.51620        0.08550        2.37700
C         -0.61300       -1.00120       -1.14520
H         -0.92130       -1.75680       -1.85740
C         -1.28060       -0.91870        0.08270
H         -2.08400       -1.61320        0.29220
C         -0.88750        0.03180        1.03810
C          0.16760        0.90750        0.73640
H          0.50060        1.65150        1.45160
C          0.82860        0.83050       -0.48800
H          1.64640        1.51420       -0.67970
C          0.45480       -0.13230       -1.43750
O          0.90540       -1.09530       -3.53250
C          1.20300       -0.23540       -2.71190
O          2.24030        0.60770       -2.94600
O         -0.95580        0.90430        3.29780
O         -2.41760       -0.68380        2.68190
C          3.08620        0.51830       -4.03180
H          3.62160       -0.45660       -4.01010
H          2.50290        0.59740       -4.97520
C          4.10190        1.64910       -3.97540
H          4.69310        1.58570       -3.03680
H          3.57940        2.62910       -4.00920
H          4.79170        1.57810       -4.84190
C          5.91540        5.42670        2.43940
C          4.90040        2.19170        4.14950
H          5.39160        1.34430        4.61110
C          5.68630        3.21290        3.60610
H          6.76440        3.12810        3.66390
C          5.08650        4.33240        3.00280
C          3.68490        4.40320        2.94490
H          3.19220        5.25030        2.48420
C          2.89940        3.38270        3.48750
H          1.82160        3.47010        3.42880
C          3.49780        2.26880        4.10120
O          3.17200        0.22120        5.21240
C          2.65410        1.19890        4.68910
O          1.30310        1.30660        4.62390
O          5.32630        6.50450        1.87660
O          7.13560        5.36690        2.49090
C          0.41110        0.36980        5.10780
H          0.64850       -0.62240        4.66080
H          0.47820        0.29600        6.21380
C         -0.99830        0.75280        4.66760
H         -1.30740        1.71480        5.13000
H         -1.70620       -0.04300        4.98450
H          5.84800        7.23440        1.51400

