%chk=PET_uff_047_gaussian.chk
%nproc=4
%mem=4000Mb
#p 6-31g* mp2

Conformer number 047. Energy MM = 202.130 kcal/mol

0 1
C         -1.57700        0.19130        2.37200
C         -0.58690       -0.93050       -1.11200
H         -0.88650       -1.69110       -1.82220
C         -1.27960       -0.82880        0.09780
H         -2.09390       -1.51560        0.29310
C         -0.90530        0.13060        1.05380
C          0.15980        0.99810        0.76740
H          0.47680        1.74420        1.48570
C          0.85490        0.89410       -0.43870
H          1.68510        1.56530       -0.61920
C          0.49630       -0.07780       -1.38650
O          0.95560       -1.05380       -3.47330
C          1.27150       -0.21260       -2.64240
O          2.36190        0.57220       -2.84110
O         -1.13710        1.07410        3.30480
O         -2.44590       -0.62160        2.65780
C          3.21030        0.45820       -3.92200
H          3.65820       -0.55980       -3.94150
H          2.64830        0.63150       -4.86580
C          4.32300        1.48740       -3.80100
H          4.89370        1.32150       -2.86240
H          3.89360        2.51150       -3.78830
H          5.01460        1.39540       -4.66430
C          5.06690       -1.89360       -0.72590
C          2.69550       -2.35710        2.20210
H          2.20330       -3.17910        2.70640
C          3.53020       -2.63550        1.11390
H          3.66270       -3.66580        0.80840
C          4.18260       -1.59630        0.42880
C          3.98400       -0.27270        0.85530
H          4.47110        0.55080        0.34790
C          3.15090        0.00500        1.94240
H          3.01780        1.03700        2.24170
C          2.49550       -1.03260        2.62810
O          1.03660       -1.62220        4.37920
C          1.59930       -0.72180        3.77200
O          1.38760        0.57680        4.11180
O          5.25590       -3.16980       -1.12660
O          5.63280       -0.98740       -1.32000
C          0.47860        1.06070        5.03850
H          0.69810        0.67160        6.05600
H          0.59360        2.16520        5.05760
C         -0.96550        0.74160        4.63530
H         -1.66810        1.31750        5.27390
H         -1.15940       -0.34140        4.80160
H          5.83190       -3.38390       -1.87440

