%chk=PET_uff_012_gaussian.chk
%nproc=4
%mem=4000Mb
#p 6-31g* mp2

Conformer number 012. Energy MM = 194.657 kcal/mol

0 1
C         -1.70240        0.13820        2.33440
C         -2.77410        0.06850       -1.29870
H         -3.04950       -0.68140       -2.02970
C         -2.43270       -0.34590       -0.01090
H         -2.45490       -1.40470        0.21540
C         -2.06800        0.59210        0.97070
C         -2.05310        1.95610        0.63540
H         -1.77560        2.70190        1.36980
C         -2.39260        2.37170       -0.65760
H         -2.36930        3.42930       -0.88890
C         -2.75610        1.43140       -1.63810
O         -3.43460        1.03720       -3.85120
C         -3.11200        1.86730       -3.01070
O         -3.07030        3.18550       -3.33490
O         -1.38540        1.04180        3.30390
O         -1.70540       -1.05950        2.58990
C         -3.37050        3.67460       -4.59020
H         -2.68200        3.23020       -5.34240
H         -4.41910        3.41590       -4.85570
C         -3.20960        5.18610       -4.60140
H         -2.16320        5.45820       -4.34660
H         -3.89750        5.64720       -3.86140
H         -3.44880        5.58000       -5.61160
C          2.09140       -3.07750       11.56140
C          1.39870       -0.04470        9.37960
H          1.27420        1.02310        9.50950
C          1.65760       -0.83740       10.50340
H          1.72800       -0.36120       11.47340
C          1.82080       -2.22860       10.37520
C          1.72110       -2.80930        9.10080
H          1.84200       -3.87710        8.96730
C          1.46050       -2.01890        7.97980
H          1.38760       -2.50120        7.01320
C          1.29570       -0.62870        8.10550
O          0.88210        1.40490        6.99420
C          1.00780        0.19190        6.90320
O          0.87190       -0.43090        5.70430
O          2.24370       -4.41240       11.42010
O          2.17530       -2.57650       12.67350
C          0.49700        0.14140        4.50450
H          1.20720        0.94420        4.20850
H          0.55260       -0.66060        3.74090
C         -0.93970        0.68450        4.56530
H         -0.96540        1.57640        5.22460
H         -1.62780       -0.07650        4.99570
H          2.41820       -4.98610       12.17980

