%chk=PET_uff_102_gaussian.chk
%nproc=4
%mem=4000Mb
#p 6-31g* mp2

Conformer number 102. Energy MM = 216.215 kcal/mol

0 1
C         -1.56060        0.20420        2.34690
C         -2.84670        0.08100       -1.20930
H         -3.20380       -0.67720       -1.89580
C         -2.44700       -0.31010        0.06800
H         -2.50900       -1.35890        0.32990
C         -1.97680        0.63760        0.99220
C         -1.91290        1.98750        0.61160
H         -1.55520        2.74020        1.30350
C         -2.31160        2.38020       -0.67190
H         -2.25210        3.42740       -0.93990
C         -2.78380        1.42890       -1.59440
O         -3.64420        1.00100       -3.73550
C         -3.20760        1.83630       -2.95630
O         -3.11730        3.14130       -3.33040
O         -1.09770        1.10790        3.25760
O         -1.62000       -0.98380        2.63790
C         -3.41630        3.62910       -4.59050
H         -4.45620        3.35210       -4.87020
H         -3.34720        4.73650       -4.56140
C         -2.42640        3.11740       -5.63730
H         -2.47180        2.01260       -5.72680
H         -1.39340        3.41440       -5.35850
H         -2.67280        3.55620       -6.62660
C         -1.33450       -5.21180       10.68840
C         -3.17420       -2.18880        9.31010
H         -4.12310       -1.69040        9.46490
C         -2.86790       -3.31480       10.08120
H         -3.58780       -3.65590       10.81490
C         -1.65420       -4.00010        9.89460
C         -0.74800       -3.52740        8.93200
H          0.19420       -4.03340        8.76190
C         -1.05110       -2.40070        8.16550
H         -0.33580       -2.07180        7.42190
C         -2.26940       -1.72320        8.34100
O         -3.70310       -0.03650        7.54790
C         -2.60150       -0.56550        7.47740
O         -1.70340       -0.15760        6.54650
O         -0.17960       -5.87870       10.47200
O         -2.11940       -5.62450       11.52970
C         -2.05260        0.45730        5.36480
H         -2.69580       -0.25110        4.80120
H         -2.62680        1.39320        5.54240
C         -0.78520        0.76520        4.56210
H         -0.10750       -0.11790        4.54870
H         -0.24310        1.59980        5.05530
H          0.04160       -6.68130       10.96520

