%chk=PET_uff_165_gaussian.chk
%nproc=4
%mem=4000Mb
#p 6-31g* mp2

Conformer number 165. Energy MM = 188.574 kcal/mol

0 1
C         -1.54070        0.13640        2.37820
C         -2.56460        0.09950       -1.26890
H         -2.77460       -0.64570       -2.02620
C         -2.22830       -0.32930        0.01580
H         -2.18730       -1.39370        0.21310
C         -1.93050        0.60180        1.02530
C         -1.99650        1.97300        0.72720
H         -1.77470        2.71430        1.48490
C         -2.34930        2.40360       -0.55750
H         -2.38820        3.46620       -0.76100
C         -2.62560        1.46920       -1.57100
O         -3.10920        3.09560       -3.19900
C         -2.96380        1.90690       -2.94730
O         -3.04600        0.97930       -3.93580
O         -1.10050        1.02810        3.30750
O         -1.56330       -1.06020        2.63780
C         -3.33820        1.26280       -5.25310
H         -4.37880        1.64610       -5.33490
H         -2.63170        2.02830       -5.64290
C         -3.18430       -0.00290       -6.08290
H         -3.87330       -0.79160       -5.71390
H         -2.13860       -0.37310       -6.01060
H         -3.41380        0.21290       -7.14750
C         -6.20450        6.87420        7.13880
C         -5.73460        3.10660        7.15100
H         -6.25270        2.23740        7.53720
C         -6.28410        4.37330        7.37280
H         -7.21270        4.45010        7.92350
C         -5.63570        5.52670        6.89560
C         -4.43270        5.38470        6.18510
H         -3.90830        6.25250        5.80470
C         -3.88450        4.11940        5.96220
H         -2.95220        4.04590        5.41680
C         -4.52770        2.96610        6.44570
O         -4.45600        0.62740        6.67860
C         -3.92080        1.63080        6.22530
O         -2.75120        1.53780        5.54580
O         -5.56190        7.97520        6.68970
O         -7.25350        7.00030        7.75560
C         -1.99080        0.39170        5.44580
H         -1.66700        0.08140        6.46360
H         -2.58260       -0.43190        4.99130
C         -0.75230        0.69130        4.60380
H         -0.05950       -0.17950        4.59680
H         -0.21420        1.54670        5.06570
H         -5.91030        8.86380        6.84710

