%chk=PET_uff_003_gaussian.chk
%nproc=4
%mem=4000Mb
#p 6-31g* mp2

Conformer number 003. Energy MM = 202.983 kcal/mol

0 1
C         -1.50390        0.04590        2.44610
C         -0.60490       -0.94650       -1.10280
H         -0.93670       -1.66640       -1.84130
C         -1.27140       -0.88530        0.12460
H         -2.09960       -1.55870        0.30450
C         -0.85600        0.02110        1.11490
C          0.22530        0.87680        0.84540
H          0.57280        1.58320        1.58950
C          0.89440        0.81140       -0.37750
H          1.73650        1.47100       -0.54470
C          0.49380       -0.10770       -1.36120
O          0.89220       -1.00170       -3.49650
C          1.24210       -0.20390       -2.63690
O          2.34870        0.56090       -2.82230
O         -1.07100        0.93280        3.37610
O         -2.37460       -0.76650        2.72580
C          3.18760        0.45850       -3.91190
H          3.61220       -0.56830       -3.96110
H          2.62450        0.66890       -4.84700
C          4.32530        1.45780       -3.77100
H          4.89750        1.25370       -2.84040
H          3.92060        2.49110       -3.72960
H          5.01040        1.37160       -4.64040
C          1.94710        8.76300        4.95100
C          3.02520        5.16010        5.48570
H          3.92550        4.62740        5.76600
C          3.06580        6.55550        5.39430
H          3.99770        7.06540        5.60590
C          1.91550        7.28250        5.03890
C          0.72660        6.58510        4.77220
H         -0.17640        7.11490        4.49700
C          0.68650        5.19200        4.86090
H         -0.24820        4.68650        4.65240
C          1.83360        4.46410        5.22210
O          2.74820        2.34510        5.68400
C          1.76700        2.98570        5.33140
O          0.60040        2.35520        5.04700
O          0.83020        9.44780        4.62130
O          2.98180        9.37440        5.18160
C          0.35000        1.01390        5.25000
H          1.09160        0.39310        4.70110
H          0.41290        0.78560        6.33640
C         -1.05110        0.70020        4.73680
H         -1.78710        1.36100        5.24330
H         -1.29990       -0.35910        4.97090
H          0.82680       10.41460        4.56480

