%chk=PET_uff_072_gaussian.chk
%nproc=4
%mem=4000Mb
#p 6-31g* mp2

Conformer number 072. Energy MM = 202.634 kcal/mol

0 1
C         -1.80120       -0.05310        2.45010
C         -3.86320       -0.11800       -0.72970
H         -4.11560       -0.83930       -1.49710
C         -3.01380       -0.51150        0.30540
H         -2.63650       -1.52630        0.30900
C         -2.67010        0.38720        1.33040
C         -3.18550        1.69370        1.28920
H         -2.94050        2.40870        2.06480
C         -4.03520        2.08920        0.24920
H         -4.42360        3.09990        0.24830
C         -4.38850        1.18450       -0.76780
O         -5.63860        0.77760       -2.71110
C         -5.31310        1.59060       -1.85590
O         -5.82690        2.84970       -1.87430
O         -1.52340        0.79790        3.47610
O         -1.37370       -1.20000        2.46610
C         -6.72120        3.33670       -2.81220
H         -7.62750        2.69310       -2.84270
H         -7.03160        4.35600       -2.50000
C         -6.09160        3.43740       -4.20100
H         -5.78870        2.44020       -4.57950
H         -5.20040        4.09870       -4.16660
H         -6.83030        3.86630       -4.91040
C          2.20060       -2.40020       11.78490
C          0.37800        0.25260        9.77220
H         -0.37030        1.01470        9.95080
C          0.79890       -0.54020       10.84400
H          0.36620       -0.36780       11.82170
C          1.76070       -1.54750       10.65290
C          2.29620       -1.74030        9.36830
H          3.03780       -2.50830        9.18820
C          1.87490       -0.94730        8.29630
H          2.30160       -1.12680        7.31740
C          0.91000        0.05600        8.48610
O         -0.41670        1.72880        7.50710
C          0.44210        0.87350        7.33960
O          0.94170        0.63940        6.09610
O          3.11720       -3.37280       11.58720
O          1.73150       -2.23440       12.90190
C          0.37930        1.09410        4.91540
H          0.27300        2.20090        4.93370
H          1.05820        0.81970        4.08060
C         -0.97110        0.41240        4.68620
H         -1.67890        0.68910        5.49460
H         -0.82080       -0.68850        4.73850
H          3.41180       -3.94420       12.31050

