%chk=PET_uff_204_gaussian.chk
%nproc=4
%mem=4000Mb
#p 6-31g* mp2

Conformer number 204. Energy MM = 217.247 kcal/mol

0 1
C         -1.75230       -0.00490        2.55060
C         -4.61220       -0.45470        0.09500
H         -4.85420       -1.09660       -0.74270
C         -3.37090       -0.60400        0.72230
H         -2.68710       -1.35910        0.35500
C         -3.03080        0.19520        1.82750
C         -3.94800        1.15890        2.27840
H         -3.71850        1.78790        3.12940
C         -5.18770        1.30610        1.65420
H         -5.87780        2.04640        2.03890
C         -5.53830        0.49460        0.56300
O         -7.18640       -0.08160       -1.00990
C         -6.87800        0.62530       -0.05930
O         -7.77610        1.49850        0.46600
O         -1.49530        0.73900        3.65680
O         -0.98240       -0.89240        2.20830
C         -9.08500        1.61160        0.04580
H         -9.11730        1.89310       -1.02900
H         -9.60840        0.64030        0.18790
C         -9.78970        2.67830        0.86970
H         -9.28610        3.65870        0.73260
H         -9.76570        2.40490        1.94650
H        -10.84760        2.76630        0.54460
C          2.28000       -2.44260       11.79000
C          0.48350        0.23510        9.79270
H         -0.27760        0.98440        9.97050
C          0.88670       -0.57620       10.85560
H          0.42750       -0.42920       11.82540
C          1.86170       -1.56960       10.66510
C          2.43010       -1.72920        9.38960
H          3.18250       -2.48690        9.21070
C          2.02680       -0.91580        8.32450
H          2.47560       -1.06880        7.35110
C          1.04740        0.07200        8.51500
O         -0.29710        1.73730        7.55820
C          0.58840        0.91050        7.38050
O          1.10870        0.72560        6.13510
O          3.20700       -3.40480       11.59540
O          1.78130       -2.30300       12.89800
C          0.48130        1.14600        4.97430
H          0.22880        2.22700        5.04510
H          1.16920        1.00260        4.11430
C         -0.77110        0.29810        4.74640
H         -1.43830        0.37160        5.63010
H         -0.47300       -0.76920        4.64290
H          3.48620       -3.98920       12.31440

