%chk=PET_uff_157_gaussian.chk
%nproc=4
%mem=4000Mb
#p 6-31g* mp2

Conformer number 157. Energy MM = 189.842 kcal/mol

0 1
C         -1.70440        0.11530        2.45570
C         -3.73180        0.07170       -0.75000
H         -3.99840       -0.64770       -1.51410
C         -2.92250       -0.34420        0.31030
H         -2.58580       -1.37320        0.33610
C         -2.55050        0.55830        1.32170
C         -3.00800        1.88460        1.25200
H         -2.74390        2.60150        2.01950
C         -3.82780        2.29770        0.19730
H         -4.17200        3.32420        0.17580
C         -4.19700        1.39560       -0.81620
O         -5.51150        2.96660       -1.96680
C         -5.06650        1.82650       -1.93830
O         -5.35610        0.95330       -2.93790
O         -1.25100        1.02430        3.35970
O         -1.41560       -1.06820        2.57540
C         -6.18210        1.24470       -4.00400
H         -7.21010        1.45550       -3.63610
H         -5.79760        2.13390       -4.55000
C         -6.21800        0.05970       -4.95670
H         -6.59990       -0.84170       -4.43240
H         -5.19600       -0.14780       -5.34000
H         -6.88380        0.28860       -5.81530
C         -6.30120        6.79470        7.08940
C         -5.65950        3.05760        7.31520
H         -6.13180        2.19160        7.76160
C         -6.26040        4.31120        7.47440
H         -7.18130        4.38020        8.04020
C         -5.67560        5.46070        6.91430
C         -4.48140        5.32910        6.18680
H         -4.00520        6.19480        5.74350
C         -3.88310        4.07670        6.02410
H         -2.96070        4.01210        5.46110
C         -4.46340        2.92830        6.58920
O         -4.28240        0.60960        6.95190
C         -3.80790        1.60610        6.42490
O         -2.67180        1.51900        5.68930
O         -5.72020        7.89300        6.55880
O         -7.34280        6.91060        7.72010
C         -1.88950        0.38860        5.56380
H         -1.47770        0.11110        6.55820
H         -2.49290       -0.45890        5.17020
C         -0.74330        0.69900        4.60410
H         -0.03530       -0.15550        4.52930
H         -0.18210        1.57130        5.00220
H         -6.10720        8.77310        6.66770

