%chk=PET_uff_177_gaussian.chk
%nproc=4
%mem=4000Mb
#p 6-31g* mp2

Conformer number 177. Energy MM = 203.180 kcal/mol

0 1
C         -1.49390        0.11050        2.29820
C         -1.59870       -0.22490       -1.47400
H         -1.92890       -0.96080       -2.19700
C         -1.77910       -0.49150       -0.11590
H         -2.24250       -1.42730        0.17140
C         -1.35090        0.42820        0.85720
C         -0.75090        1.62800        0.44160
H         -0.40730        2.35450        1.16750
C         -0.56630        1.89360       -0.91960
H         -0.08700        2.82030       -1.20960
C         -0.98160        0.96610       -1.89120
O         -1.12080        0.41640       -4.17020
C         -0.75160        1.22950       -3.33250
O         -0.09560        2.35510       -3.71580
O         -1.04310        0.98620        3.24010
O         -1.93460       -0.98210        2.62890
C          0.24820        2.63550       -5.02250
H          0.91720        1.83710       -5.41340
H         -0.66610        2.68890       -5.65300
C          0.97940        3.96690       -5.08140
H          1.89840        3.92330       -4.45870
H          0.32150        4.77830       -4.70450
H          1.26550        4.19060       -6.13060
C          0.17810       -2.85200       12.25690
C         -0.21510       -2.91110        8.48730
H          0.04610       -3.57310        7.67090
C          0.13150       -3.28400        9.78700
H          0.64960       -4.22290        9.93830
C         -0.18700       -2.45450       10.87530
C         -0.85770       -1.24280       10.63360
H         -1.11690       -0.58300       11.45170
C         -1.20150       -0.86710        9.33020
H         -1.71740        0.07190        9.17450
C         -0.88520       -1.69860        8.24420
O         -1.00550       -2.08230        5.93970
C         -1.24610       -1.31070        6.85970
O         -1.84480       -0.11080        6.60830
O         -0.13730       -2.05190       13.29900
O          0.76510       -3.90430       12.46310
C         -2.12970        0.35000        5.33290
H         -2.75050       -0.41090        4.81870
H         -2.73180        1.28080        5.40110
C         -0.82740        0.66020        4.56830
H         -0.12660       -0.19950        4.59670
H         -0.32400        1.51200        5.07320
H          0.09070       -2.29570       14.20840

