%chk=PET_uff_193_gaussian.chk
%nproc=4
%mem=4000Mb
#p 6-31g* mp2

Conformer number 193. Energy MM = 220.491 kcal/mol

0 1
C         -1.79030        0.17310        2.32220
C         -4.69920       -0.45510       -0.03030
H         -4.96810       -1.17090       -0.79730
C         -3.45130       -0.56870        0.58970
H         -2.78910       -1.37130        0.28890
C         -3.07590        0.32920        1.60370
C         -3.96530        1.35150        1.97230
H         -3.70850        2.05500        2.75480
C         -5.21310        1.46180        1.35700
H         -5.88240        2.25050        1.67820
C         -5.59790        0.55520        0.35590
O         -7.27800       -0.13010       -1.13730
C         -6.94370        0.65390       -0.25840
O         -7.81830        1.58870        0.19540
O         -1.48180        1.03000        3.33000
O         -1.06370       -0.78270        2.08480
C         -9.12470        1.70010       -0.23200
H         -9.15120        1.90280       -1.32470
H         -9.67030        0.75400       -0.01990
C         -9.80420        2.83960        0.51150
H         -9.27700        3.79530        0.30610
H         -9.78740        2.64300        1.60500
H        -10.85940        2.92900        0.17840
C          0.43420       -3.22200       12.24400
C          0.77950       -2.88940        8.47720
H          1.37240       -3.33220        7.68640
C          0.98560       -3.31320        9.79370
H          1.73440       -4.07140        9.98630
C          0.22840       -2.76920       10.84650
C         -0.73480       -1.78960       10.55520
H         -1.33510       -1.35140       11.34280
C         -0.94120       -1.36720        9.24030
H         -1.69690       -0.61490        9.05010
C         -0.18860       -1.91320        8.18670
O          0.19650       -1.96840        5.86840
C         -0.43730       -1.47580        6.79190
O         -1.42580       -0.57710        6.54970
O         -0.30720       -2.69680       13.24390
O          1.27020       -4.07670       12.49980
C         -1.89190       -0.20660        5.30510
H         -2.19380       -1.11400        4.73710
H         -2.80090        0.41460        5.45750
C         -0.88290        0.63370        4.50980
H          0.05790        0.07980        4.30410
H         -0.63390        1.53960        5.10180
H         -0.19390       -2.98240       14.16150

