%chk=PET_uff_218_gaussian.chk
%nproc=4
%mem=4000Mb
#p 6-31g* mp2

Conformer number 218. Energy MM = 193.833 kcal/mol

0 1
C         -1.86290        0.14400        2.53920
C         -4.70520       -0.46230        0.10270
H         -4.94250       -1.15960       -0.69100
C         -3.47870       -0.58400        0.76140
H         -2.80010       -1.37260        0.46000
C         -3.13910        0.29570        1.80380
C         -4.04620        1.30360        2.16790
H         -3.81580        1.99250        2.97100
C         -5.27570        1.41910        1.51640
H         -5.95940        2.19750        1.83170
C         -5.62110        0.53510        0.48060
O         -7.23250       -0.10790       -1.10450
C         -6.94140        0.64590       -0.18370
O         -7.84120        1.55830        0.26460
O         -1.53150        1.03930        3.50710
O         -1.13100       -0.80890        2.30540
C         -9.11990        1.69520       -0.23230
H         -9.08080        1.97020       -1.30880
H         -9.67230        0.73670       -0.11700
C         -9.84910        2.78050        0.54410
H         -9.31570        3.74870        0.43810
H         -9.89770        2.50820        1.62030
H        -10.88270        2.89100        0.15420
C         -7.84280        3.55080        8.45250
C         -6.22370        0.80910        6.38050
H         -6.54510       -0.02700        5.77200
C         -7.19420        1.60900        6.99350
H         -8.23970        1.36950        6.84310
C         -6.81830        2.70300        7.79330
C         -5.45240        2.98210        7.96230
H         -5.12990        3.81760        8.57110
C         -4.48290        2.18450        7.34860
H         -3.43900        2.42730        7.50140
C         -4.85610        1.08750        6.55330
O         -4.13970       -0.72130        5.23320
C         -3.81540        0.24260        5.91370
O         -2.50420        0.56510        6.07630
O         -7.46670        4.59290        9.22650
O         -9.03240        3.31030        8.30500
C         -1.41770       -0.13030        5.57340
H         -0.73710       -0.37920        6.41420
H         -1.71870       -1.08300        5.08480
C         -0.68770        0.75670        4.56410
H          0.24570        0.27240        4.20210
H         -0.40970        1.70650        5.06830
H         -8.11790        5.15470        9.67030

