%chk=PET_uff_160_gaussian.chk
%nproc=4
%mem=4000Mb
#p 6-31g* mp2

Conformer number 160. Energy MM = 200.290 kcal/mol

0 1
C         -1.73650        0.18300        2.44150
C         -1.61180       -0.27140       -1.32530
H         -1.89980       -1.02120       -2.05140
C         -1.89200       -0.49890        0.02610
H         -2.38660       -1.41920        0.31020
C         -1.51310        0.44150        0.99910
C         -0.86830        1.62130        0.59080
H         -0.56030        2.36450        1.31530
C         -0.58680        1.84740       -0.75740
H         -0.07200        2.75900       -1.03390
C         -0.94650        0.90020       -1.72870
O         -0.87600        0.28490       -3.99400
C         -0.59330        1.12550       -3.15050
O          0.08150        2.25240       -3.50240
O         -1.28820        1.08810        3.34850
O         -2.23630       -0.87040        2.81260
C          0.70900        2.45340       -4.71720
H         -0.00100        2.27970       -5.55490
H          1.05330        3.50790       -4.76440
C          1.93390        1.54910       -4.84670
H          1.64060        0.47930       -4.81490
H          2.64140        1.75300       -4.01410
H          2.44780        1.74810       -5.81010
C          5.58350        1.98830       -0.82260
C          4.53940       -0.13580        2.14920
H          4.93830       -0.96660        2.71780
C          5.28820        0.37550        1.08370
H          6.24810       -0.07250        0.85810
C          4.79960        1.44770        0.31590
C          3.55020        2.00090        0.63920
H          3.14450        2.82600        0.06740
C          2.80410        1.49210        1.70500
H          1.84330        1.93880        1.92360
C          3.28760        0.41680        2.47020
O          2.85750       -1.09880        4.22000
C          2.46930       -0.13010        3.58130
O          1.26260        0.42950        3.84820
O          5.09480        3.01000       -1.55940
O          6.67280        1.51010       -1.10520
C          0.29550       -0.11500        4.66850
H          0.01200       -1.11520        4.27430
H          0.67400       -0.23280        5.70700
C         -0.93160        0.80170        4.65320
H         -0.65840        1.75860        5.14690
H         -1.77820        0.34710        5.21200
H          5.58650        3.37390       -2.30930

