%chk=PET_uff_154_gaussian.chk
%nproc=4
%mem=4000Mb
#p 6-31g* mp2

Conformer number 154. Energy MM = 207.027 kcal/mol

0 1
C         -1.35580        0.13640        2.44170
C         -0.57620       -0.92000       -1.11560
H         -0.94060       -1.64180       -1.83620
C         -1.20220       -0.83810        0.13170
H         -2.03450       -1.49800        0.34510
C         -0.74570        0.07630        1.09680
C          0.33770        0.91350        0.78660
H          0.71570        1.62410        1.51110
C          0.96550        0.82650       -0.45460
H          1.80970        1.47590       -0.65370
C          0.52190       -0.09420       -1.41630
O          0.83730       -0.99950       -3.55990
C          1.22530       -0.20490       -2.71480
O          2.32540        0.56270       -2.94280
O         -0.89660        1.04640        3.33790
O         -2.23050       -0.65930        2.75920
C          3.18320        0.43310       -4.01820
H          2.61920        0.51190       -4.97210
H          3.91940        1.26330       -3.97650
C          3.95250       -0.88600       -3.95220
H          3.26210       -1.75240       -4.01170
H          4.52300       -0.94460       -3.00040
H          4.66440       -0.94460       -4.80160
C          6.31720       -2.90050        1.67370
C          4.76120        0.31470        2.95560
H          5.04400        1.35630        3.03970
C          5.66990       -0.58230        2.38700
H          6.62730       -0.20790        2.04650
C          5.34820       -1.94400        2.26670
C          4.09530       -2.38890        2.72310
H          3.81650       -3.43180        2.64100
C          3.18850       -1.49260        3.29980
H          2.23280       -1.86540        3.64730
C          3.51160       -0.13150        3.42650
O          2.83340        2.01400        4.07980
C          2.56120        0.82030        4.05780
O          1.42350        0.36260        4.65460
O          6.00130       -4.21000        1.56400
O          7.41140       -2.51230        1.28940
C          0.46970        1.16600        5.26660
H          0.46520        0.96170        6.35760
H          0.69070        2.24620        5.12050
C         -0.91910        0.87440        4.70660
H         -1.64710        1.57910        5.16110
H         -1.21250       -0.16470        4.97850
H          6.62360       -4.84890        1.18790

