%chk=PET_uff_064_gaussian.chk
%nproc=4
%mem=4000Mb
#p 6-31g* mp2

Conformer number 064. Energy MM = 204.643 kcal/mol

0 1
C         -1.42280        0.01830        2.47870
C          0.62500        1.10210       -0.51840
H          1.18520        1.97480       -0.82930
C         -0.05530        1.13660        0.70180
H         -0.00130        2.03480        1.30470
C         -0.77630        0.01610        1.14710
C         -0.81590       -1.13420        0.34250
H         -1.35480       -2.01680        0.66340
C         -0.12310       -1.17440       -0.86760
H         -0.15330       -2.08530       -1.45220
C          0.61120       -0.06060       -1.30790
O          1.97570        0.85040       -2.98990
C          1.38060       -0.13440       -2.57090
O          1.47700       -1.32240       -3.22060
O         -1.14440        1.02650        3.34610
O         -2.06130       -0.95770        2.85080
C          2.20880       -1.52510       -4.37000
H          1.78480       -0.91740       -5.19910
H          3.26820       -1.23030       -4.20060
C          2.16660       -2.99990       -4.73760
H          1.11750       -3.32230       -4.90770
H          2.60320       -3.60520       -3.91390
H          2.75530       -3.17450       -5.66230
C          4.68950       -1.89550       -0.94090
C          2.57900       -2.28460        2.19500
H          2.13000       -3.09150        2.76030
C          3.31400       -2.59390        1.04490
H          3.41700       -3.63200        0.75440
C          3.90740       -1.57430        0.27940
C          3.74880       -0.24050        0.68780
H          4.19180        0.56810        0.11990
C          3.01150        0.06860        1.83400
H          2.90500        1.10850        2.11630
C          2.41900       -0.94860        2.60240
O          1.12420       -1.48710        4.49310
C          1.62130       -0.60380        3.80840
O          1.40100        0.70530        4.10250
O          5.26440       -0.90620       -1.65930
O          4.82260       -3.05600       -1.30190
C          0.50810        1.21440        5.03350
H          0.77420        0.89380        6.06370
H          0.58310        2.32120        4.98230
C         -0.93400        0.81360        4.69710
H         -1.65520        1.39800        5.30620
H         -1.06530       -0.25930        4.95880
H          5.78490       -1.09440       -2.45370

