%chk=PET_uff_021_gaussian.chk
%nproc=4
%mem=4000Mb
#p 6-31g* mp2

Conformer number 021. Energy MM = 200.327 kcal/mol

0 1
C         -1.56990        0.12020        2.30720
C         -3.77490       -0.08030       -0.76890
H         -4.05520       -0.82830       -1.50010
C         -2.87120       -0.43010        0.23640
H         -2.47990       -1.43980        0.25600
C         -2.49060        0.50620        1.21250
C         -3.02650        1.80390        1.15580
H         -2.75560        2.54660        1.89660
C         -3.93020        2.15500        0.14860
H         -4.33250        3.16000        0.13700
C         -4.31950        1.21490       -0.82080
O         -5.65260        0.74340       -2.69370
C         -5.29990        1.57980       -1.87250
O         -5.83100        2.83180       -1.89440
O         -1.25540        1.02110        3.27730
O         -1.14300       -1.02550        2.37130
C         -6.75730        3.29380       -2.81220
H         -7.65430        2.63650       -2.81240
H         -7.07490        4.31210       -2.50330
C         -6.16290        3.38840       -4.21650
H         -5.85310        2.39110       -4.58930
H         -5.28120        4.06320       -4.20960
H         -6.92420        3.79840       -4.91300
C         -8.25800        4.57580        6.56320
C         -6.60820        1.16680        6.29290
H         -6.90050        0.12840        6.38740
C         -7.57750        2.15890        6.47030
H         -8.59310        1.86080        6.69920
C         -7.23690        3.51860        6.36000
C         -5.90920        3.86370        6.05750
H         -5.61450        4.90180        5.96670
C         -4.94220        2.87190        5.87160
H         -3.92710        3.17190        5.64310
C         -5.27970        1.51310        5.99230
O         -4.51340       -0.70960        6.00410
C         -4.24250        0.46810        5.81090
O         -3.00150        0.82610        5.39810
O         -7.91250        5.87920        6.47980
O         -9.41600        4.27580        6.81660
C         -1.91860       -0.02630        5.31160
H         -1.57470       -0.30260        6.33150
H         -2.20530       -0.95500        4.77110
C         -0.80030        0.67550        4.53780
H          0.09910        0.02610        4.46270
H         -0.51730        1.60130        5.08220
H         -8.56040        6.58420        6.62030

