%chk=PET_uff_213_gaussian.chk
%nproc=4
%mem=4000Mb
#p 6-31g* mp2

Conformer number 213. Energy MM = 173.813 kcal/mol

0 1
C         -1.70070        0.13050        2.44140
C         -2.79120        0.02460       -1.18990
H         -3.09030       -0.72910       -1.90790
C         -2.45500       -0.37870        0.10410
H         -2.50360       -1.43250        0.34840
C         -2.06010        0.56470        1.06800
C         -2.00940        1.92260        0.70810
H         -1.70850        2.67350        1.42780
C         -2.34680        2.32670       -0.58890
H         -2.29820        3.37990       -0.83650
C         -2.74120        1.38150       -1.55190
O         -3.43720        0.97060       -3.75640
C         -3.09750        1.80660       -2.92880
O         -3.04430        3.12070       -3.26960
O         -1.30290        1.04960        3.36300
O         -1.75200       -1.05740        2.73320
C         -3.34700        3.59680       -4.53000
H         -2.66110        3.14260       -5.27870
H         -4.39660        3.33670       -4.79010
C         -3.18640        5.10840       -4.56040
H         -2.14020        5.38510       -4.31070
H         -3.87430        5.57880       -3.82620
H         -3.42750        5.48920       -5.57540
C          5.57590       -2.08070       -0.30490
C          4.83500        0.01880        2.77030
H          5.39470        0.58560        3.50390
C          5.53160       -0.63790        1.75150
H          6.61150       -0.56090        1.72470
C          4.84130       -1.38320        0.77940
C          3.44030       -1.45850        0.84930
H          2.87930       -2.02300        0.11510
C          2.74390       -0.80400        1.86900
H          1.66370       -0.88080        1.89330
C          3.43320       -0.05820        2.84040
O          3.28240        1.31710        4.74110
C          2.68560        0.63780        3.91610
O          1.33530        0.51620        3.97660
O          4.90120       -2.79300       -1.23350
O          6.79560       -2.01600       -0.36580
C          0.52980        1.18640        4.87440
H          0.83210        0.94070        5.91630
H          0.62500        2.28300        4.71540
C         -0.91820        0.76310        4.66280
H         -1.57390        1.31660        5.36720
H         -1.00740       -0.32130        4.89440
H          5.36120       -3.25520       -1.94870

