%chk=PET_uff_066_gaussian.chk
%nproc=4
%mem=4000Mb
#p 6-31g* mp2

Conformer number 066. Energy MM = 199.040 kcal/mol

0 1
C         -1.40400        0.35270        2.29000
C         -4.31400        2.07530        0.57610
H         -5.00060        2.88510        0.78840
C         -3.32450        1.76380        1.51440
H         -3.27560        2.33790        2.43100
C         -2.42550        0.70880        1.27880
C         -2.53050       -0.02260        0.08470
H         -1.85360       -0.84230       -0.12340
C         -3.51030        0.29550       -0.85600
H         -3.56120       -0.28820       -1.76670
C         -4.41480        1.34240       -0.62120
O         -6.27500        2.54410       -1.41790
C         -5.45830        1.65660       -1.62590
O         -5.49050        0.94920       -2.78510
O         -1.23940        1.13500        3.38650
O         -0.73450       -0.66270        2.15390
C         -6.41970        1.12760       -3.78710
H         -7.43850        0.90880       -3.40030
H         -6.38210        2.17580       -4.15680
C         -6.09780        0.18250       -4.93410
H         -6.12990       -0.87010       -4.58010
H         -5.08320        0.40050       -5.32970
H         -6.83930        0.31260       -5.75080
C         -8.08370        4.71260        6.64850
C         -6.53500        1.24520        6.54570
H         -6.82370        0.23290        6.79790
C         -7.45930        2.27870        6.73390
H         -8.43900        2.03740        7.12690
C         -7.11730        3.60860        6.42820
C         -5.83700        3.88040        5.91900
H         -5.54330        4.89320        5.67180
C         -4.91560        2.84900        5.72960
H         -3.93510        3.09570        5.34090
C         -5.25090        1.52100        6.04760
O         -4.52090       -0.71580        6.15930
C         -4.24900        0.44150        5.86960
O         -3.02100        0.76070        5.39490
O         -7.72850        5.98900        6.38360
O         -9.20130        4.47770        7.08570
C         -1.95120       -0.10170        5.27420
H         -1.63830       -0.46170        6.27800
H         -2.23250       -0.97420        4.64440
C         -0.80840        0.66410        4.61130
H          0.10070        0.03330        4.50160
H         -0.55180        1.53240        5.25520
H         -8.33620        6.72630        6.53910

