%chk=PET_uff_014_gaussian.chk
%nproc=4
%mem=4000Mb
#p 6-31g* mp2

Conformer number 014. Energy MM = 178.236 kcal/mol

0 1
C         -1.78860        0.05420        2.55890
C         -3.84490       -0.08850       -0.62800
H         -4.10290       -0.82790       -1.37630
C         -3.00620       -0.46350        0.42460
H         -2.63990       -1.48200        0.46030
C         -2.65360        0.46190        1.42230
C         -3.15150        1.77340        1.33780
H         -2.89970        2.50960        2.09100
C         -3.99330        2.14810        0.28500
H         -4.36810        3.16360        0.25270
C         -4.35340        1.21960       -0.70690
O         -5.57210        0.79130       -2.66860
C         -5.26500        1.61040       -1.81130
O         -5.77450        2.86910       -1.85730
O         -1.45430        0.96320        3.51370
O         -1.39360       -1.10140        2.63990
C         -6.67170        3.29990       -2.81430
H         -6.22080        3.20330       -3.82660
H         -7.59730        2.68560       -2.76540
C         -7.02800        4.75680       -2.56330
H         -6.11540        5.38700       -2.62000
H         -7.48720        4.86900       -1.55820
H         -7.75310        5.10230       -3.33070
C          5.69940       -1.96060       -0.27580
C          4.78190        0.55410        2.41610
H          5.27100        1.34770        2.96710
C          5.51890       -0.16010        1.46680
H          6.55810        0.10090        1.30940
C          4.92080       -1.19870        0.73170
C          3.57030       -1.50640        0.96580
H          3.08090       -2.30120        0.41700
C          2.83280       -0.79140        1.91380
H          1.79410       -1.05450        2.07100
C          3.43030        0.24630        2.64920
O          3.17040        1.88500        4.31380
C          2.64240        0.99720        3.65690
O          1.33480        0.68770        3.85030
O          5.11440       -2.95840       -0.97380
O          6.87450       -1.69190       -0.48090
C          0.52950        1.27550        4.80390
H          0.95360        1.08290        5.81390
H          0.47040        2.37370        4.63670
C         -0.86470        0.66760        4.73130
H         -1.49630        1.09530        5.53830
H         -0.79050       -0.42890        4.90600
H          5.60460       -3.46810       -1.63460

