%chk=PET_uff_005_gaussian.chk
%nproc=4
%mem=4000Mb
#p 6-31g* mp2

Conformer number 005. Energy MM = 183.383 kcal/mol

0 1
C         -1.58410        0.13870        2.29030
C         -1.69730       -0.21760       -1.48550
H         -2.06930       -0.93290       -2.20870
C         -1.89150       -0.47400       -0.12540
H         -2.40690       -1.38070        0.16590
C         -1.41420        0.42400        0.84530
C         -0.74680        1.58700        0.42620
H         -0.36540        2.29710        1.14920
C         -0.55250        1.84280       -0.93350
H         -0.02710        2.74440       -1.22310
C         -1.02080        0.94120       -1.90380
O         -1.19550        0.41620       -4.18710
C         -0.79020        1.20670       -3.34490
O         -0.10850        2.31950       -3.72240
O         -1.07890        1.00540        3.20890
O         -2.13880       -0.89190        2.64780
C          0.20850        2.62390       -5.03000
H          0.84560        1.81950       -5.45910
H         -0.72080        2.71790       -5.63340
C          0.97020        3.93930       -5.07410
H          1.90470        3.85790       -4.47870
H          0.34300        4.75550       -4.65720
H          1.23250        4.18570       -6.12440
C          2.67990       -1.76770       12.06210
C          3.42190        0.03900        8.80800
H          4.27600        0.50060        8.32840
C          3.58820       -0.53410       10.07190
H          4.56630       -0.49880       10.53550
C          2.50590       -1.14940       10.72490
C          1.25350       -1.17440       10.08890
H          0.40050       -1.64140       10.56500
C          1.08680       -0.60020        8.82560
H          0.11000       -0.64090        8.35990
C          2.16920        0.01040        8.17080
O          2.94740        1.09790        6.24060
C          1.99210        0.59880        6.82130
O          0.77430        0.55260        6.22090
O          1.63490       -2.36540       12.67510
O          3.76980       -1.74610       12.61590
C          0.55890        0.90660        4.90550
H          0.86030        1.96390        4.73410
H          1.16560        0.24320        4.24970
C         -0.91330        0.73510        4.55500
H         -1.52740        1.43970        5.15520
H         -1.22340       -0.30340        4.80620
H          1.72850       -2.77980       13.54460

