%chk=PET_uff_131_gaussian.chk
%nproc=4
%mem=4000Mb
#p 6-31g* mp2

Conformer number 131. Energy MM = 186.390 kcal/mol

0 1
C         -1.12090       -0.27200        2.62960
C          0.66640        0.95630       -0.48110
H          1.17400        1.85600       -0.80570
C          0.09650        0.92740        0.79520
H          0.17980        1.80610        1.42300
C         -0.55840       -0.22640        1.25820
C         -0.64180       -1.34650        0.41330
H         -1.13820       -2.25140        0.74130
C         -0.06740       -1.31960       -0.85970
H         -0.13810       -2.20410       -1.48050
C          0.59840       -0.17120       -1.31820
O          1.79690        0.84490       -3.06570
C          1.23570       -0.16430       -2.65760
O          1.22920       -1.29520       -3.40880
O         -0.96180        0.79590        3.45630
O         -1.67580       -1.28770        3.02740
C          1.86100       -1.41750       -4.62970
H          1.43130       -0.69210       -5.35410
H          2.94870       -1.21820       -4.51060
C          1.67450       -2.83190       -5.15700
H          0.59370       -3.04940       -5.29070
H          2.10710       -3.56340       -4.44140
H          2.18930       -2.93880       -6.13510
C          2.05670        8.84510        4.79680
C          2.92730        5.25100        5.65580
H          3.77650        4.70810        6.05190
C          3.03560        6.63340        5.47690
H          3.96580        7.12190        5.73930
C          1.95290        7.37550        4.97300
C          0.76380        6.70390        4.64350
H         -0.08840        7.24670        4.25440
C          0.65730        5.32120        4.81750
H         -0.27530        4.83480        4.55970
C          1.73550        4.58030        5.32980
O          2.51980        2.48530        6.04900
C          1.60460        3.11730        5.53770
O          0.45990        2.48670        5.16920
O          1.00140        9.54990        4.33350
O          3.09310        9.42950        5.07850
C          0.14660        1.18610        5.50930
H          0.95570        0.49350        5.18580
H          0.02790        1.11570        6.61230
C         -1.15390        0.77930        4.82680
H         -1.96340        1.48900        5.10040
H         -1.43940       -0.23240        5.18980
H          1.04450       10.51020        4.22180

