%chk=PET_uff_002_gaussian.chk
%nproc=4
%mem=4000Mb
#p 6-31g* mp2

Conformer number 002. Energy MM = 178.152 kcal/mol

0 1
C         -1.68020        0.10790        2.42320
C         -2.72830        0.01810       -1.22150
H         -2.99380       -0.73420       -1.95380
C         -2.38940       -0.39310        0.06950
H         -2.40370       -1.45150        0.29800
C         -2.03980        0.54920        1.05230
C         -2.03580        1.91320        0.71370
H         -1.76980        2.66350        1.44790
C         -2.37120        2.32500       -0.58130
H         -2.35610        3.38280       -0.81300
C         -2.72140        1.38140       -1.56270
O         -3.39000        0.98260       -3.77830
C         -3.07570        1.81540       -2.93760
O         -3.04240        3.13420       -3.26320
O         -1.40410        1.02930        3.38580
O         -1.65730       -1.08670        2.69040
C         -3.34530        3.62030       -4.51950
H         -2.65540        3.17780       -5.27140
H         -4.39280        3.35640       -4.78380
C         -3.19140        5.13290       -4.53510
H         -2.14610        5.41110       -4.28280
H         -3.88080        5.59370       -3.79640
H         -3.43340        5.52270       -5.54650
C          5.81390        5.58470        2.39380
C          4.85700        2.06930        3.46470
H          5.35800        1.12820        3.65470
C          5.62100        3.17080        3.06560
H          6.69190        3.05140        2.95740
C          5.00840        4.41100        2.81240
C          3.61690        4.52480        2.96440
H          3.11500        5.46600        2.77800
C          2.85340        3.42380        3.36170
H          1.78310        3.54640        3.47150
C          3.46430        2.18480        3.61700
O          3.17940       -0.04800        4.29810
C          2.64600        1.02490        4.04930
O          1.30190        1.16870        4.17890
O          5.21320        6.77180        2.15950
O          7.02540        5.48700        2.26030
C          0.45620        0.19360        4.66740
H          0.53080       -0.72560        4.04800
H          0.74730       -0.05540        5.71130
C         -0.97900        0.72410        4.66760
H         -1.00770        1.64910        5.28200
H         -1.66940       -0.01460        5.13030
H          5.71970        7.55040        1.88820

