%chk=PET_uff_089_gaussian.chk
%nproc=4
%mem=4000Mb
#p 6-31g* mp2

Conformer number 089. Energy MM = 183.796 kcal/mol

0 1
C         -2.02560       -0.03160        2.75600
C         -3.96980       -0.11340       -0.50020
H         -4.22290       -0.84490       -1.25750
C         -3.19210       -0.51530        0.58780
H         -2.86430       -1.54630        0.63980
C         -2.84340        0.40100        1.59580
C         -3.28600        1.73020        1.48760
H         -3.03370        2.45960        2.24690
C         -4.06990        2.13130        0.40060
H         -4.40200        3.16070        0.34910
C         -4.42220        1.21320       -0.60360
O         -5.55300        0.83140       -2.62680
C         -5.26550        1.63570       -1.74950
O         -5.73620        2.90870       -1.80980
O         -1.64020        0.87790        3.69340
O         -1.68330       -1.20290        2.85180
C         -6.56180        3.37550       -2.81290
H         -6.04820        3.29140       -3.79560
H         -7.49940        2.77750       -2.83680
C         -6.91120        4.83190       -2.55060
H         -5.98730        5.44800       -2.53300
H         -7.43250        4.92740       -1.57450
H         -7.58000        5.20660       -3.35400
C          2.99350       -2.03420       -2.01720
C          2.24950       -2.23570        1.70000
H          2.23660       -2.99490        2.47190
C          2.60350       -2.60360        0.39910
H          2.85790       -3.63760        0.20000
C          2.62510       -1.64850       -0.63270
C          2.28640       -0.31810       -0.33430
H          2.29270        0.44090       -1.10630
C          1.93060        0.04910        0.96570
H          1.66900        1.08160        1.16110
C          1.90740       -0.90480        1.99660
O          1.48230       -1.34380        4.26450
C          1.50550       -0.51050        3.36820
O          1.12340        0.77170        3.61020
O          3.00700       -1.10710       -2.99960
O          3.28340       -3.19280       -2.27940
C          0.47090        1.21050        4.74820
H          1.06820        0.97450        5.65550
H          0.35900        2.31350        4.68140
C         -0.92310        0.58390        4.84190
H         -1.46250        0.98910        5.72370
H         -0.82390       -0.51180        4.99550
H          3.24130       -1.33800       -3.90970

