%chk=PET_uff_180_gaussian.chk
%nproc=4
%mem=4000Mb
#p 6-31g* mp2

Conformer number 180. Energy MM = 213.619 kcal/mol

0 1
C         -1.68050        0.03380        2.52180
C         -4.63940       -0.61640        0.24160
H         -4.95950       -1.38540       -0.45100
C         -3.40460       -0.75880        0.88010
H         -2.80450       -1.63490        0.66650
C         -2.95960        0.21010        1.79470
C         -3.76830        1.33020        2.04950
H         -3.45650        2.09030        2.75520
C         -5.00810        1.46710        1.41880
H         -5.61740        2.33180        1.65120
C         -5.45940        0.49220        0.51290
O         -7.16850       -0.21400       -0.93580
C         -6.79180        0.62290       -0.12550
O         -7.61090        1.64560        0.23260
O         -1.24030        1.00980        3.35580
O         -1.05670       -1.01400        2.42160
C         -8.89760        1.80430       -0.23960
H         -8.88300        1.93710       -1.34330
H         -9.50400        0.90700        0.01450
C         -9.53040        3.02460        0.41080
H         -8.94390        3.93490        0.16520
H         -9.55720        2.89490        1.51400
H        -10.56900        3.15110        0.03890
C         -6.40220        6.73660        6.78950
C         -5.61400        3.04540        7.20370
H         -6.06240        2.18240        7.67930
C         -6.26670        4.28020        7.29040
H         -7.20330        4.33840        7.83090
C         -5.71450        5.42500        6.68920
C         -4.49920        5.30720        5.99410
H         -4.04680        6.17000        5.52120
C         -3.84940        4.07400        5.90440
H         -2.91240        4.02050        5.36410
C         -4.39660        2.92980        6.51090
O         -4.12460        0.63970        6.98650
C         -3.68430        1.63060        6.41970
O         -2.54350        1.55510        5.69110
O         -7.57040        6.84110        7.46100
O         -5.91560        7.73100        6.27260
C         -1.71310        0.45580        5.60400
H         -1.25330        0.25230        6.59490
H         -2.29060       -0.43790        5.27890
C         -0.63010        0.76130        4.57020
H          0.10370       -0.07040        4.49000
H         -0.08450        1.67360        4.89340
H         -8.03260        7.68780        7.54110

