%chk=PET_uff_098_gaussian.chk
%nproc=4
%mem=4000Mb
#p 6-31g* mp2

Conformer number 098. Energy MM = 188.615 kcal/mol

0 1
C         -1.33150        0.54590        2.25330
C         -4.33260        2.08420        0.52790
H         -5.08230        2.83170        0.75540
C         -3.34030        1.81890        1.47420
H         -3.35380        2.36710        2.40800
C         -2.35210        0.85240        1.22220
C         -2.37620        0.15770        0.00060
H         -1.63410       -0.59980       -0.21910
C         -3.37210        0.42020       -0.94500
H         -3.36970       -0.13830       -1.87250
C         -4.36230        1.38450       -0.69040
O         -6.28440        2.49340       -1.46100
C         -5.42640        1.65050       -1.68920
O         -5.45110        0.94660       -2.85050
O         -1.42470        1.14560        3.46960
O         -0.48570       -0.31370        2.04460
C         -6.40950        1.10960       -3.82970
H         -7.41670        0.88830       -3.41290
H         -6.38980        2.15580       -4.20630
C         -6.12610        0.15780       -4.98100
H         -6.15200       -0.89270       -4.62080
H         -5.12490        0.37060       -5.41200
H         -6.89470        0.28700       -5.77190
C         -7.02920       -4.20660        1.30150
C         -6.08230       -2.44800        4.53430
H         -6.52060       -2.27430        5.50910
C         -6.80370       -3.18540        3.58880
H         -7.78140       -3.56480        3.85840
C         -6.26930       -3.42680        2.30960
C         -4.99970       -2.91620        1.99690
H         -4.55980       -3.08250        1.02130
C         -4.28030       -2.17940        2.93990
H         -3.30600       -1.79850        2.66200
C         -4.81250       -1.93680        4.21940
O         -4.48770       -0.90610        6.31530
C         -4.03750       -1.13910        5.20190
O         -2.84160       -0.63120        4.82240
O         -6.50160       -4.43070        0.07780
O         -8.13580       -4.65100        1.57000
C         -2.05960        0.25070        5.53870
H         -2.65400        1.16020        5.77800
H         -1.69970       -0.21500        6.48130
C         -0.89040        0.64950        4.64560
H         -0.26580       -0.25350        4.46550
H         -0.25990        1.42140        5.13460
H         -6.97970       -4.93660       -0.59430

