%chk=PET_uff_079_gaussian.chk
%nproc=4
%mem=4000Mb
#p 6-31g* mp2

Conformer number 079. Energy MM = 186.174 kcal/mol

0 1
C         -1.54720        0.12980        2.28000
C         -2.79400        0.01070       -1.30070
H         -3.12180       -0.74380       -2.00470
C         -2.39370       -0.39130       -0.02400
H         -2.42530       -1.44500        0.22330
C         -1.96410        0.55610        0.92170
C         -1.94040        1.91380        0.56120
H         -1.61470        2.66750        1.26690
C         -2.33680        2.31570       -0.71850
H         -2.30600        3.36930       -0.96640
C         -2.76910        1.36850       -1.66230
O         -3.59330        0.96510       -3.82270
C         -3.19130        1.79590       -3.01880
O         -3.14020        3.11210       -3.35830
O         -1.17730        1.06260        3.19880
O         -1.53740       -1.05970        2.56780
C         -3.44560        3.62860       -4.60530
H         -4.47400        3.32840       -4.90240
H         -3.41240        4.73650       -4.54100
C         -2.43210        3.18430       -5.65950
H         -2.44100        2.08240       -5.78470
H         -1.41150        3.50650       -5.36340
H         -2.68570        3.64750       -6.63630
C         -0.82180       -1.13360       13.00190
C         -3.03620       -1.08720        9.92030
H         -4.05580       -1.34910        9.66670
C         -2.60210       -1.27070       11.23590
H         -3.29820       -1.66860       11.96380
C         -1.28620       -0.94270       11.60590
C         -0.41410       -0.42960       10.63110
H          0.60550       -0.16750       10.88430
C         -0.84750       -0.24800        9.31470
H         -0.15120        0.14960        8.58710
C         -2.16330       -0.57380        8.94520
O         -3.77280       -0.64790        7.23730
C         -2.61950       -0.37840        7.54740
O         -1.75150        0.09040        6.61310
O          0.44410       -0.81130       13.34710
O         -1.58030       -1.58190       13.84970
C         -2.09160        0.30990        5.29390
H         -2.46790       -0.63730        4.85280
H         -2.89320        1.07900        5.23720
C         -0.86430        0.79840        4.52070
H         -0.04410        0.04940        4.57470
H         -0.50640        1.73990        4.98910
H          0.76600       -0.92650       14.25210

