%chk=PET_uff_125_gaussian.chk
%nproc=4
%mem=4000Mb
#p 6-31g* mp2

Conformer number 125. Energy MM = 188.774 kcal/mol

0 1
C         -1.44730        0.15380        2.30880
C         -0.71420       -0.72040       -1.31130
H         -1.16310       -1.31230       -2.09910
C         -1.36340       -0.63920       -0.07530
H         -2.29430       -1.17500        0.06290
C         -0.80280        0.10730        0.97520
C          0.41270        0.77750        0.76120
H          0.87450        1.35560        1.55180
C          1.05790        0.70050       -0.47340
H          1.99660        1.22470       -0.60150
C          0.50570       -0.05310       -1.52140
O          0.74710       -0.82010       -3.72930
C          1.21370       -0.14550       -2.82070
O          2.38760        0.51620       -2.99030
O         -0.78980        0.76170        3.33100
O         -2.49390       -0.44810        2.50900
C          3.15240        0.46040       -4.13650
H          3.47800       -0.58700       -4.32020
H          2.55980        0.81980       -5.00580
C          4.37830        1.34490       -3.96810
H          4.98290        0.99770       -3.10330
H          4.06570        2.39660       -3.79360
H          5.00200        1.30170       -4.88550
C          1.21440       -5.09940       -0.96290
C          0.36970       -3.13110        2.16980
H         -0.47450       -3.02570        2.83950
C          0.26090       -4.00910        1.08800
H         -0.66180       -4.56000        0.95490
C          1.32810       -4.16950        0.18850
C          2.50700       -3.43300        0.39420
H          3.34600       -3.53260       -0.28240
C          2.61520       -2.55280        1.47630
H          3.53390       -1.99410        1.60370
C          1.54740       -2.39320        2.37660
O          2.64400       -0.75240        3.65240
C          1.64140       -1.43960        3.51070
O          0.57550       -1.28640        4.34140
O          2.24640       -5.24830       -1.82100
O          0.18630       -5.73750       -1.14190
C          0.33800       -0.18790        5.15100
H          0.24420       -0.50880        6.20960
H          1.15930        0.55960        5.07920
C         -0.95540        0.46340        4.67100
H         -1.17450        1.38830        5.24490
H         -1.78800       -0.25690        4.83190
H          2.19290       -5.85130       -2.57650

