%chk=PET_uff_188_gaussian.chk
%nproc=4
%mem=4000Mb
#p 6-31g* mp2

Conformer number 188. Energy MM = 198.831 kcal/mol

0 1
C         -1.27150       -0.13910        2.56000
C          0.46460        1.07440       -0.58250
H          0.91560        1.99150       -0.94080
C         -0.12840        1.06520        0.68360
H         -0.11680        1.97460        1.27150
C         -0.70510       -0.11140        1.19130
C         -0.69130       -1.27310        0.40190
H         -1.12410       -2.19610        0.76760
C         -0.09770       -1.26430       -0.86160
H         -0.09190       -2.18050       -1.43870
C          0.49410       -0.09380       -1.36450
O          1.67070        0.91250       -3.13220
C          1.15900       -0.10760       -2.68970
O          1.23300       -1.27050       -3.38730
O         -1.23410        0.98120        3.32730
O         -1.69180       -1.18920        3.02790
C          1.90550       -1.41700       -4.58240
H          1.46860       -0.74110       -5.34940
H          2.98020       -1.16760       -4.44100
C          1.78970       -2.85860       -5.05280
H          0.72220       -3.12390       -5.20650
H          2.22810       -3.54180       -4.29410
H          2.33620       -2.98640       -6.01060
C          5.85470        5.42920        2.27720
C          4.80820        2.10310        3.78490
H          5.28570        1.18760        4.11100
C          5.60120        3.12680        3.25560
H          6.67150        2.97620        3.18780
C          5.01890        4.33300        2.82590
C          3.62700        4.48880        2.92840
H          3.14720        5.40490        2.60710
C          2.83420        3.46430        3.45230
H          1.76490        3.61940        3.52030
C          3.41590        2.26250        3.89050
O          3.06600        0.16170        4.89280
C          2.56260        1.18960        4.46050
O          1.21680        1.35640        4.48030
O          5.28380        6.58930        1.88730
O          7.06690        5.29400        2.18250
C          0.31180        0.49160        5.06280
H          0.46640       -0.53930        4.67490
H          0.44960        0.48520        6.16510
C         -1.10050        0.96050        4.70360
H         -1.23950        1.99170        5.09240
H         -1.87160        0.30610        5.16570
H          5.81080        7.32180        1.53810

