%chk=PET_uff_108_gaussian.chk
%nproc=4
%mem=4000Mb
#p 6-31g* mp2

Conformer number 108. Energy MM = 188.340 kcal/mol

0 1
C         -1.51110        0.46930        2.19420
C         -4.37730        2.14020        0.36560
H         -5.10400        2.91680        0.56890
C         -3.43050        1.83340        1.34570
H         -3.45350        2.38100        2.27970
C         -2.47800        0.82370        1.12770
C         -2.48560        0.13380       -0.09670
H         -1.76770       -0.65290       -0.29260
C         -3.43660        0.43710       -1.07540
H         -3.42540       -0.12140       -2.00300
C         -4.39620        1.43940       -0.85230
O         -6.24880        2.61940       -1.68450
C         -5.42280        1.73730       -1.88050
O         -5.46240        1.00470       -3.02340
O         -1.60450        1.08360        3.40290
O         -0.69310       -0.42210        2.00980
C         -6.41660        1.16360       -4.00730
H         -7.42860        0.98430       -3.58210
H         -6.36840        2.19570       -4.41820
C         -6.16480        0.16370       -5.12480
H         -6.21880       -0.87210       -4.72660
H         -5.16010        0.33220       -5.56680
H         -6.93370        0.28540       -5.91660
C         -0.44790       -3.41410       12.31780
C         -2.88220       -1.75630        9.92880
H         -3.95040       -1.58690        9.87000
C         -2.37160       -2.43960       11.03430
H         -3.05830       -2.77800       11.80040
C         -0.99240       -2.68520       11.14680
C         -0.13580       -2.23050       10.12940
H          0.93150       -2.40430       10.18690
C         -0.64740       -1.54800        9.02140
H          0.03720       -1.21370        8.25200
C         -2.02600       -1.30460        8.90960
O         -3.77680       -0.38730        7.64840
C         -2.57240       -0.59390        7.72900
O         -1.74460       -0.20640        6.72240
O          0.87940       -3.64620       12.41700
O         -1.19490       -3.81240       13.20020
C         -2.20860        0.34520        5.54630
H         -2.90760       -0.37430        5.06280
H         -2.75210        1.29350        5.75500
C         -1.06000        0.61560        4.58400
H         -0.49310       -0.32960        4.42960
H         -0.37020        1.37610        5.00780
H          1.25390       -4.12180       13.17170

