%chk=PET_uff_084_gaussian.chk
%nproc=4
%mem=4000Mb
#p 6-31g* mp2

Conformer number 084. Energy MM = 205.704 kcal/mol

0 1
C         -1.87290       -0.05130        2.31190
C         -3.81470        0.04590       -0.94110
H         -4.03340       -0.63230       -1.75670
C         -3.00410       -0.40120        0.10310
H         -2.62040       -1.41340        0.06620
C         -2.70310        0.44220        1.18710
C         -3.22460        1.74660        1.19870
H         -3.01320        2.41860        2.02120
C         -4.03850        2.19400        0.15290
H         -4.43300        3.20160        0.19390
C         -4.34560        1.34670       -0.92620
O         -5.48660        1.06630       -2.95910
C         -5.22730        1.81280       -2.02430
O         -5.76230        3.06020       -1.97770
O         -1.60350        0.76110        3.37040
O         -1.46140       -1.20430        2.29790
C         -6.63250        3.55710       -2.92650
H         -6.14100        3.56310       -3.92400
H         -7.54390        2.92150       -2.97050
C         -7.03320        4.97600       -2.55670
H         -6.13400        5.62700       -2.51780
H         -7.53230        4.98360       -1.56420
H         -7.73640        5.37620       -3.31690
C          0.47020       -3.47210       11.42580
C         -0.24670       -0.19860        9.64190
H         -0.73700        0.74120        9.86360
C         -0.18610       -1.17870       10.63710
H         -0.62860       -0.96900       11.60290
C          0.42580       -2.41870       10.38210
C          0.98640       -2.65220        9.11550
H          1.46310       -3.59720        8.88680
C          0.92830       -1.67180        8.12190
H          1.35820       -1.88890        7.15200
C          0.30610       -0.43720        8.37190
O         -0.41160        1.61760        7.48600
C          0.20030        0.57520        7.29390
O          0.72100        0.30330        6.06850
O          1.03710       -4.66900       11.15870
O         -0.01850       -3.27060       12.52830
C          0.26510        0.85150        4.88430
H          0.27600        1.96280        4.92820
H          0.94260        0.52380        4.06750
C         -1.13730        0.31540        4.59490
H         -1.84450        0.64820        5.38260
H         -1.09830       -0.79660        4.63440
H          1.06320       -5.37500       11.82000

