%chk=PET_uff_183_gaussian.chk
%nproc=4
%mem=4000Mb
#p 6-31g* mp2

Conformer number 183. Energy MM = 199.469 kcal/mol

0 1
C         -1.73470        0.12410        2.31080
C         -3.69370        0.06060       -0.93440
H         -3.90850       -0.65090       -1.72180
C         -2.87640       -0.33730        0.12590
H         -2.48380       -1.34650        0.13040
C         -2.57780        0.55440        1.17080
C         -3.11010        1.85330        1.13040
H         -2.90070        2.56200        1.92200
C         -3.92840        2.25140        0.06970
H         -4.32680        3.25820        0.06930
C         -4.23110        1.35880       -0.97250
O         -5.36480        0.99960       -2.99610
C         -5.10540        1.78300       -2.09220
O         -5.62980        3.03780       -2.09830
O         -1.47720        0.98900        3.32950
O         -1.29940       -1.01970        2.34900
C         -6.37860        3.58350       -3.12430
H         -7.24740        2.92880       -3.35620
H         -6.76620        4.56820       -2.78840
C         -5.52550        3.80880       -4.37090
H         -5.12760        2.84930       -4.76040
H         -4.67500        4.48080       -4.12840
H         -6.14230        4.28120       -5.16370
C          0.32510       -3.23170       12.26060
C          0.58640       -2.93180        8.48600
H          1.15790       -3.38660        7.68650
C          0.81790       -3.34720        9.80010
H          1.56330       -4.11150        9.98170
C          0.09040       -2.78690       10.86500
C         -0.86850       -1.79890       10.58720
H         -1.44580       -1.34810       11.38510
C         -1.10010       -1.38350        9.27350
H         -1.85020       -0.62460        9.09280
C         -0.37730       -1.94650        8.20830
O         -0.03370       -2.03450        5.88810
C         -0.64420       -1.51800        6.81490
O         -1.61210       -0.59410        6.57240
O         -0.38710       -2.69240       13.27400
O          1.15830       -4.09320       12.50270
C         -2.04240       -0.20200        5.32040
H         -2.35360       -1.09970        4.74390
H         -2.93660        0.44540        5.44660
C         -0.97890        0.60720        4.56170
H         -0.03690        0.03480        4.42510
H         -0.74480        1.51960        5.15010
H         -0.25400       -2.97270       14.19040

