%chk=PET_uff_087_gaussian.chk
%nproc=4
%mem=4000Mb
#p 6-31g* mp2

Conformer number 087. Energy MM = 177.824 kcal/mol

0 1
C         -1.47690        0.13150        2.36520
C         -1.54420       -0.35140       -1.40100
H         -1.83160       -1.12300       -2.10420
C         -1.70810       -0.59130       -0.03280
H         -2.11660       -1.54240        0.28600
C         -1.33840        0.38310        0.91040
C         -0.80870        1.60270        0.45640
H         -0.51170        2.37310        1.15690
C         -0.64460        1.84160       -0.90890
H         -0.22690        2.79000       -1.22340
C         -1.00650        0.86700       -1.85260
O         -1.11710        0.27160       -4.12260
C         -0.80840        1.12390       -3.29930
O         -0.26610        2.30200       -3.70390
O         -1.08430        1.09290        3.24130
O         -1.90250       -0.94290        2.76740
C          0.01650        2.61560       -5.01710
H          0.75200        1.88880       -5.42650
H         -0.91400        2.57940       -5.62430
C          0.60660        4.01570       -5.08780
H          1.54000        4.06640       -4.48750
H         -0.12140        4.75520       -4.69140
H          0.84210        4.27090       -6.14240
C          5.76760       -3.58240        1.45930
C          4.90510       -0.48560        3.47890
H          5.43480        0.33290        3.95020
C          5.64040       -1.46060        2.79820
H          6.71890       -1.36990        2.76250
C          4.99040       -2.54030        2.17510
C          3.58940       -2.62030        2.24240
H          3.05910       -3.43940        1.77280
C          2.85370       -1.64330        2.91950
H          1.77520       -1.73520        2.95410
C          3.50350       -0.56710        3.54790
O          3.28610        1.37720        4.85170
C          2.71680        0.46110        4.27310
O          1.36160        0.38750        4.27510
O          5.13310       -4.62310        0.87660
O          6.98660       -3.51020        1.39690
C          0.53040        1.25910        4.94980
H          0.69210        1.16490        6.04590
H          0.74600        2.30510        4.63760
C         -0.91730        0.93430        4.60430
H         -1.59320        1.63560        5.13760
H         -1.15070       -0.10120        4.93750
H          5.62190       -5.31670        0.41120

