%chk=PET_uff_210_gaussian.chk
%nproc=4
%mem=4000Mb
#p 6-31g* mp2

Conformer number 210. Energy MM = 187.454 kcal/mol

0 1
C         -1.78310       -0.06140        2.43410
C         -3.79680       -0.07770       -0.78360
H         -4.02580       -0.78160       -1.57350
C         -2.96000       -0.48680        0.25780
H         -2.56680       -1.49570        0.24170
C         -2.64630        0.38910        1.31180
C         -3.18170        1.68900        1.29420
H         -2.95960        2.38810        2.09070
C         -4.01930        2.09950        0.24980
H         -4.42010        3.10550        0.26740
C         -4.34000        1.21880       -0.79720
O         -5.52810        0.86020       -2.79170
C         -5.24630        1.64430       -1.89420
O         -5.77480        2.89640       -1.89170
O         -1.54860        0.77020        3.48550
O         -1.32320       -1.19580        2.42800
C         -6.67120        3.35080       -2.83920
H         -6.21530        3.29200       -3.85170
H         -7.59130        2.72640       -2.81460
C         -7.04200        4.79570       -2.54340
H         -6.13460        5.43530       -2.57780
H         -7.50530        4.87230       -1.53680
H         -7.76710        5.15790       -3.30230
C          3.42510       -0.52750       12.01380
C          0.65260        0.84920        9.81910
H         -0.33280        1.27680        9.95660
C          1.37250        0.44860       10.94770
H          0.92400        0.57830       11.92490
C          2.65550       -0.10900       10.81540
C          3.20010       -0.26170        9.52870
H          4.18620       -0.68810        9.39410
C          2.47770        0.13660        8.39790
H          2.92560        0.00730        7.42080
C          1.19710        0.69910        8.53100
O         -0.66280        1.66220        7.47530
C          0.43080        1.13130        7.33400
O          0.95110        0.95260        6.08780
O          4.66300       -1.05120       11.87880
O          2.94690       -0.39670       13.13170
C          0.31520        1.28220        4.90090
H          0.04010        2.35960        4.90750
H          1.02530        1.11010        4.06420
C         -0.92340        0.41130        4.66860
H         -1.65230        0.55710        5.49040
H         -0.61960       -0.65840        4.67350
H          5.18240       -1.32400       12.64850

