%chk=PET_uff_020_gaussian.chk
%nproc=4
%mem=4000Mb
#p 6-31g* mp2

Conformer number 020. Energy MM = 223.548 kcal/mol

0 1
C         -1.66110        0.04640        2.49950
C         -4.65310       -0.68730        0.29240
H         -4.98090       -1.47910       -0.37030
C         -3.40660       -0.80200        0.91070
H         -2.80390       -1.67930        0.71120
C         -2.95240        0.19590        1.78920
C         -3.76470        1.31720        2.02640
H         -3.44570        2.09910        2.70470
C         -5.01600        1.42770        1.41430
H         -5.62720        2.29430        1.63270
C         -5.47770        0.42310        0.54640
O         -7.21820       -0.35820       -0.82060
C         -6.82300        0.52300       -0.06840
O         -7.63610        1.56380        0.25840
O         -1.22420        1.03460        3.32130
O         -1.02640       -0.99550        2.40420
C         -8.92790        1.74760       -0.20060
H         -9.54260        0.84790        0.02130
H         -9.37000        2.60970        0.34160
C         -8.95630        2.06210       -1.69450
H         -8.54730        1.22060       -2.28910
H         -8.36000        2.97630       -1.89890
H        -10.00520        2.23810       -2.01370
C         -6.29260        6.75390        7.07040
C         -5.59110        3.02500        7.26360
H         -6.05390        2.14560        7.69320
C         -6.21760        4.26580        7.42490
H         -7.14900        4.31250        7.97550
C         -5.64290        5.43210        6.88840
C         -4.43520        5.32940        6.17960
H         -3.96680        6.20830        5.75430
C         -3.81190        4.09040        6.01420
H         -2.87860        4.04860        5.46660
C         -4.37910        2.92500        6.55870
O         -4.14460        0.60940        6.91550
C         -3.69020        1.62000        6.39640
O         -2.54790        1.56310        5.66740
O         -5.71660        7.86830        6.56910
O         -7.34670        6.84490        7.68310
C         -1.71230        0.46900        5.56570
H         -1.25560        0.25580        6.55580
H         -2.28300       -0.42430        5.22800
C         -0.62410        0.79450        4.54260
H          0.12190       -0.02690        4.46760
H         -0.09440        1.71300        4.87390
H         -6.11670        8.74170        6.68630

