%chk=PET_uff_023_gaussian.chk
%nproc=4
%mem=4000Mb
#p 6-31g* mp2

Conformer number 023. Energy MM = 193.425 kcal/mol

0 1
C         -1.56010        0.25180        2.36590
C         -3.76130       -0.02360       -0.71040
H         -4.04510       -0.78780       -1.42330
C         -2.86320       -0.35350        0.30790
H         -2.47910       -1.36550        0.35740
C         -2.47830        0.60770        1.25860
C         -3.00450        1.90600        1.16590
H         -2.73140        2.66670        1.88620
C         -3.90260        2.23620        0.14770
H         -4.29550        3.24410        0.10830
C         -4.29370        1.27450       -0.79890
O         -5.60510        0.78650       -2.68610
C         -5.26310        1.62720       -1.86450
O         -5.78050        2.88210       -1.91300
O         -1.24420        1.18070        3.30700
O         -1.12650       -0.88830        2.45900
C         -6.71210        3.29870       -2.84130
H         -6.29690        3.19270       -3.86730
H         -7.63420        2.68300       -2.75230
C         -7.06050        4.75750       -2.59010
H         -6.14980        5.38670       -2.68220
H         -7.48390        4.87720       -1.57010
H         -7.81120        5.09750       -3.33420
C         -5.98490       -5.87830        2.64840
C         -5.70300       -2.85960        4.93460
H         -6.31320       -2.36070        5.67710
C         -6.21250       -3.99500        4.29670
H         -7.20180       -4.34420        4.56480
C         -5.45240       -4.67030        3.32530
C         -4.17480       -4.18390        3.00440
H         -3.56360       -4.68130        2.26170
C         -3.66810       -3.04740        3.63930
H         -2.68060       -2.70280        3.36980
C         -4.42430       -2.37260        4.61190
O         -4.52240       -0.60830        6.16140
C         -3.87960       -1.16390        5.28020
O         -2.68620       -0.65380        4.87900
O         -5.24010       -6.52320        1.72390
O         -7.09890       -6.30060        2.92410
C         -2.09740        0.47090        5.42290
H         -2.81970        1.31740        5.40000
H         -1.80750        0.27200        6.47720
C         -0.86790        0.87860        4.60390
H         -0.08390        0.08970        4.61840
H         -0.44240        1.79360        5.06740
H         -5.56690       -7.31530        1.27410

