%chk=PET_uff_031_gaussian.chk
%nproc=4
%mem=4000Mb
#p 6-31g* mp2

Conformer number 031. Energy MM = 178.830 kcal/mol

0 1
C         -1.78760        0.14030        2.35110
C         -2.89620        0.03510       -1.27720
H         -3.21300       -0.71310       -1.99330
C         -2.56800       -0.37180        0.01910
H         -2.63860       -1.42290        0.26940
C         -2.14850        0.56750        0.97700
C         -2.06790        1.92170        0.61100
H         -1.74810        2.66990        1.32550
C         -2.39860        2.32870       -0.68450
H         -2.32500        3.37990       -0.93480
C         -2.81450        1.39010       -1.64330
O         -3.51180        1.00120       -3.85230
C         -3.15900        1.82570       -3.01930
O         -3.07970        3.14110       -3.34990
O         -1.35380        1.06540        3.24840
O         -1.87770       -1.03760        2.67020
C         -3.36700        3.63860       -4.60470
H         -2.68320        3.18470       -5.35550
H         -4.41890        3.39930       -4.87440
C         -3.18260        5.14800       -4.60880
H         -2.13370        5.40440       -4.34820
H         -3.86670        5.61620       -3.86940
H         -3.41230        5.55070       -5.61770
C          4.10330       -0.75300       11.46000
C          3.79900       -1.46540        7.74410
H          4.35990       -1.99560        6.98440
C          4.28400       -1.45570        9.05500
H          5.20660       -1.97900        9.27350
C          3.58810       -0.77430       10.06880
C          2.39490       -0.10760        9.74390
H          1.83550        0.42620       10.50200
C          1.90920       -0.11860        8.43360
H          0.98850        0.40830        8.21540
C          2.60680       -0.79490        7.41910
O          2.71890       -1.35810        5.14140
C          2.09440       -0.78870        6.02730
O          0.93890       -0.13520        5.73860
O          3.43140       -0.08460       12.42280
O          5.14120       -1.33370       11.74360
C          0.44320        0.02340        4.46110
H          1.17530        0.59900        3.85280
H          0.28650       -0.97240        3.99430
C         -0.87700        0.79460        4.51810
H         -0.69290        1.76420        5.02800
H         -1.63670        0.23200        5.10400
H          3.75340       -0.05270       13.33490

