%chk=PET_uff_220_gaussian.chk
%nproc=4
%mem=4000Mb
#p 6-31g* mp2

Conformer number 220. Energy MM = 213.625 kcal/mol

0 1
C         -1.24330       -0.17680        2.62480
C         -0.60580       -0.85360       -1.05620
H         -1.02310       -1.48060       -1.83430
C         -1.19020       -0.87890        0.21310
H         -2.04210       -1.52620        0.37990
C         -0.66730       -0.09570        1.25790
C          0.44200        0.72690        0.99880
H          0.87150        1.33890        1.78180
C          1.03060        0.74740       -0.27020
H          1.89610        1.37760       -0.43270
C          0.51910       -0.04940       -1.30810
O          0.71810       -0.75180       -3.54180
C          1.17580       -0.06220       -2.63970
O          2.31470        0.65200       -2.83570
O         -0.70100        0.56500        3.63050
O         -2.13600       -0.97950        2.85480
C          3.06300        0.60530       -3.99470
H          3.40980       -0.43640       -4.17430
H          2.44930        0.94130       -4.85870
C          4.27670        1.51090       -3.85450
H          4.90040        1.18050       -2.99640
H          3.95180        2.55930       -3.68650
H          4.88750        1.46540       -4.78080
C         -5.93720        7.29970        6.25240
C         -2.95580        5.03540        6.87990
H         -2.02540        5.07720        7.43200
C         -3.80480        6.14580        6.90830
H         -3.50600        7.01590        7.47960
C         -5.02690        6.12830        6.21420
C         -5.37850        4.97900        5.48650
H         -6.31390        4.93360        4.94300
C         -4.52900        3.86920        5.45660
H         -4.83330        2.99580        4.89340
C         -3.31010        3.88350        6.15490
O         -1.39970        2.69130        6.81200
C         -2.42690        2.69050        6.14850
O         -2.80850        1.57530        5.46700
O         -7.11550        7.26650        5.59240
O         -5.63130        8.29950        6.88640
C         -2.20960        0.33180        5.56620
H         -2.17610        0.03330        6.63690
H         -2.85500       -0.40900        5.05800
C         -0.78330        0.28440        4.98570
H         -0.35870       -0.72790        5.16280
H         -0.13660        1.00230        5.52730
H         -7.72630        8.01700        5.61050

