%chk=PET_uff_123_gaussian.chk
%nproc=4
%mem=4000Mb
#p 6-31g* mp2

Conformer number 123. Energy MM = 194.501 kcal/mol

0 1
C         -1.46280        0.23960        2.15820
C         -3.47800        0.21520       -1.05160
H         -3.61530       -0.44620       -1.89790
C         -2.58240       -0.15780       -0.04790
H         -2.05740       -1.10000       -0.14500
C         -2.38240        0.66410        1.07480
C         -3.09350        1.87210        1.16800
H         -2.96450        2.52410        2.02270
C         -3.98360        2.25090        0.15680
H         -4.51750        3.18780        0.25600
C         -4.18840        1.42390       -0.96140
O         -5.34180        1.06910       -2.97600
C         -5.14260        1.81740       -2.02750
O         -5.78740        3.01040       -1.95220
O         -1.41040        0.94840        3.32040
O         -0.82930       -0.80140        2.03730
C         -6.70820        3.44460       -2.88430
H         -6.23930        3.47860       -3.89230
H         -7.57640        2.74980       -2.90730
C         -7.18790        4.83960       -2.51650
H         -6.32880        5.54380       -2.50440
H         -7.66430        4.82760       -1.51340
H         -7.92940        5.18970       -3.26530
C         -8.39310       -2.62400        1.98860
C         -6.32590       -2.04870        5.12440
H         -6.42610       -2.20630        6.19080
C         -7.37220       -2.43600        4.27900
H         -8.25580       -2.88410        4.71490
C         -7.28050       -2.23580        2.88870
C         -6.11850       -1.65360        2.36110
H         -6.01610       -1.48250        1.29650
C         -5.07160       -1.27500        3.20330
H         -4.19440       -0.82120        2.76270
C         -5.16410       -1.46230        4.59410
O         -4.16250       -1.05820        6.68950
C         -4.05390       -1.01690        5.47160
O         -2.92580       -0.53810        4.89750
O         -8.30310       -2.39780        0.65910
O         -9.40540       -3.13870        2.44270
C         -1.96530        0.24100        5.50810
H         -2.42250        1.21270        5.79640
H         -1.55670       -0.25820        6.41370
C         -0.84740        0.47990        4.49810
H         -0.32470       -0.48930        4.34210
H         -0.10540        1.20740        4.88900
H         -9.02290       -2.63030        0.05570

