%chk=PET_uff_046_gaussian.chk
%nproc=4
%mem=4000Mb
#p 6-31g* mp2

Conformer number 046. Energy MM = 216.000 kcal/mol

0 1
C         -1.74470        0.07450        2.62810
C         -4.60450       -0.52850        0.21340
H         -4.87120       -1.25980       -0.53930
C         -3.37730       -0.65510        0.86920
H         -2.73010       -1.48320        0.60660
C         -3.00520        0.25890        1.87060
C         -3.87410        1.31620        2.18450
H         -3.61690        2.03420        2.95310
C         -5.10250        1.44180        1.53030
H         -5.75920        2.25600        1.80930
C         -5.48610        0.51380        0.54700
O         -7.14850       -0.19310       -0.95530
C         -6.81380        0.62180       -0.10530
O         -7.67120        1.60230        0.27860
O         -1.42770        0.92880        3.63720
O         -1.03640       -0.89690        2.40180
C         -8.96070        1.73020       -0.19440
H         -8.94800        1.86810       -1.29750
H         -9.54510        0.81730        0.05540
C         -9.62000        2.93620        0.45600
H         -9.05060        3.85760        0.21070
H         -9.64530        2.80690        1.55930
H        -10.65980        3.04280        0.08170
C          4.99450       -1.93850       -0.97700
C          2.80900       -2.34260        2.09900
H          2.37640       -3.15420        2.67140
C          3.58670       -2.64750        0.97890
H          3.73730       -3.68740        0.71630
C          4.16300       -1.62190        0.20940
C          3.93990       -0.28570        0.58110
H          4.37130        0.52730        0.01090
C          3.15410        0.01950        1.69500
H          3.00050        1.05930        1.95570
C          2.58300       -1.00440        2.46710
O          1.35380       -1.56590        4.38220
C          1.75130       -0.67300        3.64870
O          1.42100        0.62590        3.89140
O          5.55110       -0.94370       -1.70180
O          5.18350       -3.10110       -1.30680
C          0.61430        1.07370        4.92150
H          1.05270        0.77240        5.89790
H          0.58020        2.18430        4.88750
C         -0.81440        0.53120        4.81300
H         -1.41590        0.91740        5.66250
H         -0.81320       -0.57470        4.90870
H          6.09940       -1.12810       -2.47710

