%chk=PET_uff_164_gaussian.chk
%nproc=4
%mem=4000Mb
#p 6-31g* mp2

Conformer number 164. Energy MM = 194.075 kcal/mol

0 1
C         -1.38450        0.14220        2.09660
C         -1.52000       -0.16640       -1.67670
H         -1.84560       -0.90170       -2.40200
C         -1.66450       -0.45500       -0.31910
H         -2.09730       -1.40590       -0.03400
C         -1.24880        0.46760        0.65700
C         -0.69070        1.68860        0.24530
H         -0.36010        2.41830        0.97390
C         -0.54500        1.97770       -1.11590
H         -0.10620        2.92480       -1.40360
C         -0.95540        1.05130       -2.09090
O         -1.14650        0.53540       -4.37390
C         -0.78630        1.35020       -3.53390
O         -0.21720        2.52140       -3.91840
O         -0.97140        1.02770        3.04640
O         -1.86230       -0.93520        2.42870
C          0.02140        2.86280       -5.23410
H          0.70580        2.11850       -5.69740
H         -0.93590        2.88270       -5.79980
C          0.66710        4.23770       -5.29350
H          1.62830        4.23040       -4.73670
H         -0.00960        4.99460       -4.84320
H          0.86470        4.51290       -6.35090
C         -0.07170       -2.83370       12.09830
C          0.56790       -0.06300        9.57750
H          0.82790        0.98810        9.59070
C          0.42540       -0.74150       10.79310
H          0.57970       -0.19650       11.71630
C          0.08580       -2.10640       10.81520
C         -0.10620       -2.77830        9.59740
H         -0.36820       -3.82860        9.57890
C          0.03570       -2.10190        8.38550
H         -0.12160       -2.65170        7.46580
C          0.37310       -0.73770        8.36010
O          0.80580        1.14860        7.01880
C          0.51100       -0.03800        7.05980
O          0.30570       -0.74110        5.91720
O         -0.40310       -4.14380       12.10070
O          0.09460       -2.25360       13.16180
C          0.30230       -0.25090        4.62730
H          1.27050        0.24130        4.38900
H          0.19270       -1.12700        3.95650
C         -0.87040        0.71400        4.39080
H         -0.70110        1.64540        4.96950
H         -1.82620        0.26310        4.73880
H         -0.51450       -4.63730       12.92480

