%chk=PET_uff_106_gaussian.chk
%nproc=4
%mem=4000Mb
#p 6-31g* mp2

Conformer number 106. Energy MM = 176.353 kcal/mol

0 1
C         -1.52120        0.08360        2.38780
C         -2.91040        0.02810       -1.14410
H         -3.30060       -0.70840       -1.83540
C         -2.47940       -0.39550        0.11600
H         -2.54800       -1.44740        0.36360
C         -1.96970        0.52820        1.04450
C         -1.89690        1.88460        0.68320
H         -1.51040        2.62150        1.37610
C         -2.32840        2.30860       -0.57790
H         -2.26310        3.36090       -0.82430
C         -2.84200        1.38520       -1.50430
O         -3.77270        1.02860       -3.63110
C         -3.31070        1.83860       -2.83790
O         -3.23360        3.15340       -3.17140
O         -1.01790        0.99240        3.26440
O         -1.59920       -1.09770        2.69900
C         -3.70520        3.67300       -4.36040
H         -3.19800        3.17980       -5.21850
H         -4.80160        3.50170       -4.43490
C         -3.42790        5.16730       -4.41180
H         -2.33410        5.35240       -4.35540
H         -3.92880        5.67810       -3.56220
H         -3.81530        5.58710       -5.36410
C         -7.40180        6.14700        5.21020
C         -6.03760        2.87230        6.56400
H         -6.33290        2.12190        7.28660
C         -6.86950        3.97780        6.36150
H         -7.78620        4.05220        6.93330
C         -6.52140        4.97320        5.43130
C         -5.32350        4.84010        4.71020
H         -5.02740        5.58870        3.98610
C         -4.49070        3.73660        4.91440
H         -3.57460        3.66380        4.34100
C         -4.83880        2.74000        5.84210
O         -4.26750        0.68570        6.83210
C         -3.94910        1.57060        6.04870
O         -2.77840        1.49380        5.36560
O         -7.05830        7.09350        4.30930
O         -8.44350        6.26550        5.83940
C         -1.90220        0.43000        5.43510
H         -1.57640        0.27580        6.48720
H         -2.40640       -0.49410        5.08010
C         -0.67030        0.73110        4.57800
H          0.05480       -0.11050        4.62450
H         -0.17470        1.63510        4.99160
H         -7.61890        7.86560        4.14820

