%chk=PET_uff_071_gaussian.chk
%nproc=4
%mem=4000Mb
#p 6-31g* mp2

Conformer number 071. Energy MM = 197.595 kcal/mol

0 1
C         -1.67900        0.17840        2.33920
C         -2.72160        0.06700       -1.29860
H         -2.95660       -0.69370       -2.03200
C         -2.37220       -0.33260       -0.00870
H         -2.34740       -1.39160        0.21590
C         -2.05620        0.61970        0.97560
C         -2.10160        1.98350        0.64310
H         -1.86260        2.73980        1.38040
C         -2.45510        2.38540       -0.65070
H         -2.48090        3.44250       -0.88020
C         -2.76720        1.42990       -1.63460
O         -3.36780        1.00560       -3.86390
C         -3.13550        1.85070       -3.00860
O         -3.21860        3.17040       -3.31260
O         -1.36400        1.08870        3.30310
O         -1.66520       -1.01870        2.59780
C         -3.50300        3.64780       -4.57670
H         -2.70470        3.33280       -5.28440
H         -4.48000        3.24460       -4.92370
C         -3.57940        5.16510       -4.54370
H         -2.61250        5.58880       -4.19950
H         -4.38660        5.48680       -3.85120
H         -3.80290        5.55030       -5.56060
C          2.24720       -4.87490       10.29020
C          3.30310       -2.58590        7.45000
H          4.20930       -2.35360        6.90460
C          3.35880       -3.52630        8.48370
H          4.30800       -3.99500        8.71180
C          2.19990       -3.86450        9.20500
C          0.98780       -3.23540        8.87780
H          0.07710       -3.47540        9.41190
C          0.93300       -2.29320        7.84880
H         -0.02000       -1.83480        7.61520
C          2.08800       -1.96100        7.12090
O          2.98530       -0.76950        5.30380
C          2.00520       -0.99170        6.00260
O          0.81530       -0.40190        5.72280
O          1.12070       -5.20550       10.95880
O          3.30140       -5.42220       10.57960
C          0.49960        0.15590        4.50340
H          1.21940        0.95780        4.22690
H          0.55330       -0.64920        3.74070
C         -0.91810        0.73170        4.56460
H         -0.91120        1.62420        5.22600
H         -1.62280       -0.01050        5.00130
H          1.12620       -5.86990       11.66260

