%chk=PET_uff_144_gaussian.chk
%nproc=4
%mem=4000Mb
#p 6-31g* mp2

Conformer number 144. Energy MM = 196.880 kcal/mol

0 1
C         -1.53650        0.08620        2.45220
C         -1.01460        2.03790       -0.76530
H         -0.87240        3.06850       -1.06570
C         -1.20440        1.74670        0.59160
H         -1.20200        2.55870        1.30790
C         -1.38800        0.41890        1.01530
C         -1.37870       -0.60820        0.05690
H         -1.50410       -1.64290        0.35110
C         -1.17400       -0.32020       -1.29070
H         -1.15520       -1.14040       -1.99750
C         -0.98770        1.00330       -1.71840
O         -0.63510        2.43340       -3.55240
C         -0.75240        1.28200       -3.15530
O         -0.63440        0.23930       -4.01750
O         -1.28140        1.03260        3.39700
O         -1.75740       -1.07290        2.78070
C         -0.41510        0.35810       -5.37280
H         -1.27150        0.88350       -5.84880
H          0.51970        0.93120       -5.55790
C         -0.27010       -1.03130       -5.97510
H         -1.19250       -1.62380       -5.79530
H          0.59230       -1.55610       -5.50980
H         -0.09660       -0.95400       -7.06870
C          2.71470       -1.92290       -1.94620
C          2.03920       -2.30290        1.77420
H          1.93870       -3.10860        2.49050
C          2.31890       -2.61630        0.43890
H          2.43190       -3.65640        0.15920
C          2.43850       -1.59860       -0.52480
C          2.28300       -0.26260       -0.12370
H          2.36590        0.54440       -0.84100
C          2.00620        0.05010        1.20850
H          1.87910        1.09080        1.47880
C          1.87650       -0.96480        2.17240
O          1.35000       -1.49020        4.40720
C          1.52780       -0.61440        3.57270
O          1.31340        0.69070        3.88640
O          2.80480       -0.93400       -2.86290
O          2.85280       -3.08510       -2.29970
C          0.52760        1.16040        4.92450
H          0.90250        0.80830        5.90980
H          0.57990        2.26940        4.90340
C         -0.93000        0.73820        4.70620
H         -1.60550        1.25720        5.41950
H         -1.00320       -0.35130        4.91240
H          2.97590       -1.12270       -3.79650

