%chk=PET_uff_074_gaussian.chk
%nproc=4
%mem=4000Mb
#p 6-31g* mp2

Conformer number 074. Energy MM = 195.499 kcal/mol

0 1
C         -1.61190        0.10020        2.30290
C         -1.75930       -0.17900       -1.47550
H         -2.14000       -0.88010       -2.20780
C         -1.93760       -0.46140       -0.11950
H         -2.45090       -1.37380        0.15860
C         -1.45160        0.41770        0.86380
C         -0.78890        1.58910        0.46120
H         -0.39970        2.28380        1.19500
C         -0.60650        1.86950       -0.89640
H         -0.08280        2.77560       -1.17520
C         -1.08620        0.98690       -1.87940
O         -1.30730        0.50690       -4.16660
C         -0.87200        1.27440       -3.31820
O         -0.18430        2.38850       -3.68890
O         -1.15670        0.96770        3.24770
O         -2.13290       -0.95560        2.63860
C          0.18640        2.70240       -4.98370
H         -0.70610        2.71490       -5.64660
H          0.63300        3.71890       -4.98230
C          1.23550        1.72500       -5.51410
H          0.83370        0.69200       -5.55770
H          2.13050        1.73670       -4.85630
H          1.53970        2.02530       -6.53870
C          7.18930        3.22400        3.20410
C          5.04980        0.11970        3.65510
H          5.19050       -0.95390        3.65400
C          6.15580        0.94470        3.42780
H          7.12200        0.48640        3.25750
C          6.01580        2.34380        3.42830
C          4.74490        2.89900        3.65090
H          4.60410        3.97270        3.65880
C          3.63810        2.07440        3.87140
H          2.67350        2.53470        4.04530
C          3.77880        0.67620        3.88100
O          2.73940       -1.40350        4.23150
C          2.60270       -0.19070        4.14080
O          1.37470        0.37160        4.27470
O          7.04610        4.56720        3.23070
O          8.29460        2.74110        3.00340
C          0.24720       -0.29570        4.70980
H          0.08160       -1.21340        4.10450
H          0.38120       -0.58880        5.77350
C         -0.96090        0.63300        4.57610
H         -0.76090        1.55860        5.15690
H         -1.87600        0.15680        4.99160
H          7.80030        5.15890        3.09790

