%chk=PET_uff_176_gaussian.chk
%nproc=4
%mem=4000Mb
#p 6-31g* mp2

Conformer number 176. Energy MM = 201.782 kcal/mol

0 1
C         -1.46250        0.17670        2.24620
C         -2.64520        0.10450       -1.35060
H         -2.93330       -0.64800       -2.07450
C         -2.25250       -0.30800       -0.07760
H         -2.25010       -1.36810        0.14470
C         -1.87240        0.63250        0.89590
C         -1.89440        1.99790        0.56670
H         -1.60760        2.74540        1.29600
C         -2.28370        2.41150       -0.71270
H         -2.28820        3.47090       -0.94050
C         -2.66380        1.46840       -1.68450
O         -3.41920        1.06840       -3.87110
C         -3.07450        1.90110       -3.04200
O         -3.05650        3.21980       -3.36800
O         -1.15080        1.07680        3.22200
O         -1.40760       -1.02440        2.48000
C         -3.40670        3.70500       -4.61180
H         -2.74680        3.26020       -5.38900
H         -4.46420        3.44290       -4.83560
C         -3.24830        5.21640       -4.63300
H         -2.19290        5.48960       -4.41950
H         -3.90740        5.67880       -3.86810
H         -3.52640        5.60720       -5.63440
C         -1.79980       -4.08140       11.87810
C         -0.63920       -3.28540        8.35620
H          0.01220       -3.72910        7.61350
C         -0.78050       -3.92360        9.59020
H         -0.23310       -4.84120        9.76770
C         -1.62880       -3.39130       10.57590
C         -2.32210       -2.19920       10.30450
H         -2.98400       -1.76490       11.04310
C         -2.17860       -1.55840        9.06950
H         -2.73570       -0.64820        8.88570
C         -1.34060       -2.09820        8.08010
O         -0.55730       -1.98560        5.87720
C         -1.22560       -1.44990        6.75100
O         -1.93770       -0.32020        6.48030
O         -2.63750       -3.57700       12.80980
O         -1.19590       -5.11890       12.11120
C         -2.16200        0.17920        5.20890
H         -2.63060       -0.62530        4.60520
H         -2.89390        1.01220        5.27320
C         -0.88460        0.71690        4.53390
H         -0.06290       -0.02810        4.53470
H         -0.53110        1.60600        5.09780
H         -2.77370       -4.02070       13.65900

