%chk=PET_uff_203_gaussian.chk
%nproc=4
%mem=4000Mb
#p 6-31g* mp2

Conformer number 203. Energy MM = 183.822 kcal/mol

0 1
C         -1.25380        0.07080        2.28960
C         -2.84050        2.25350       -0.38370
H         -3.29010        3.23640       -0.45030
C         -2.36150        1.81200        0.85570
H         -2.45350        2.46560        1.71440
C         -1.76910        0.54390        0.98020
C         -1.66800       -0.27330       -0.15930
H         -1.21810       -1.25620       -0.09780
C         -2.14790        0.16590       -1.39460
H         -2.05390       -0.49030       -2.25090
C         -2.73780        1.43360       -1.52210
O         -3.74950        2.99520       -2.95930
C         -3.23930        1.88900       -2.84280
O         -3.12580        1.06830       -3.91970
O         -1.38890        0.84920        3.39800
O         -0.71860       -1.02750        2.36690
C         -3.54870        1.39100       -5.19250
H         -4.64170        1.59540       -5.18760
H         -3.00720        2.29300       -5.55300
C         -3.26180        0.22740       -6.12960
H         -3.80260       -0.67990       -5.78540
H         -2.17170        0.01460       -6.14930
H         -3.59860        0.47950       -7.15720
C         -5.97030        7.24600        6.32230
C         -2.94760        5.03970        6.95700
H         -1.98910        5.12340        7.45380
C         -3.80460        6.14400        6.95820
H         -3.48490        7.05140        7.45530
C         -5.05780        6.07590        6.32500
C         -5.43530        4.87970        5.69240
H         -6.39400        4.79530        5.19580
C         -4.57920        3.77490        5.69250
H         -4.90010        2.86750        5.19610
C         -3.32620        3.84280        6.32400
O         -1.32810        2.73670        6.86640
C         -2.42190        2.66730        6.32180
O         -2.82740        1.50690        5.73920
O         -7.17090        7.16960        5.70770
O         -5.64240        8.28640        6.87450
C         -2.06190        0.35980        5.63680
H         -1.68290        0.06750        6.64070
H         -2.70740       -0.46310        5.26270
C         -0.90020        0.53700        4.65660
H         -0.31000       -0.40510        4.64890
H         -0.22120        1.34740        4.99230
H         -7.77990        7.92150        5.69330

