%chk=PET_uff_191_gaussian.chk
%nproc=4
%mem=4000Mb
#p 6-31g* mp2

Conformer number 191. Energy MM = 195.480 kcal/mol

0 1
C         -1.92290       -0.26030        3.02750
C         -4.68920       -0.81700        0.49350
H         -5.03250       -1.62570       -0.13990
C         -3.56340       -1.02390        1.29250
H         -3.07190       -1.98810        1.25350
C         -3.08980       -0.00850        2.14290
C         -3.76200        1.22510        2.16470
H         -3.42410        2.02550        2.81090
C         -4.89250        1.43240        1.36340
H         -5.39750        2.38920        1.40980
C         -5.37190        0.41030        0.52460
O         -6.99640       -0.29110       -1.01980
C         -6.58950        0.61310       -0.30100
O         -7.26700        1.78880       -0.23580
O         -1.48060        0.70240        3.88500
O         -1.38800       -1.36170        3.01500
C         -8.45480        2.02420       -0.89980
H         -8.30890        1.90200       -1.99530
H         -9.22790        1.30410       -0.55140
C         -8.93050        3.43980       -0.61420
H         -8.17570        4.17260       -0.97000
H         -9.08690        3.57600        0.47700
H         -9.89010        3.62490       -1.14160
C          1.77340        8.85780        4.92220
C          3.02920        5.28140        5.02810
H          3.98200        4.77620        5.13130
C          3.00930        6.67760        5.03940
H          3.94530        7.21140        5.14930
C          1.79580        7.37410        4.91140
C          0.60330        6.64210        4.77440
H         -0.34730        7.15050        4.67420
C          0.62330        5.24280        4.76770
H         -0.31140        4.70620        4.66270
C          1.83680        4.54730        4.89260
O          2.94060        2.48200        4.96840
C          1.86560        3.06330        4.89320
O          0.70610        2.34910        4.85550
O          0.60310        9.52040        4.79360
O          2.81190        9.49040        5.04760
C          0.68550        0.96880        4.92540
H          1.19820        0.52890        4.04180
H          1.22220        0.64890        5.84660
C         -0.73880        0.43270        5.02550
H         -1.25000        0.87990        5.90430
H         -0.67220       -0.66250        5.21090
H          0.56900       10.48790        4.79700

