%chk=PET_uff_019_gaussian.chk
%nproc=4
%mem=4000Mb
#p 6-31g* mp2

Conformer number 019. Energy MM = 200.343 kcal/mol

0 1
C         -1.48470        0.07200        2.49360
C          0.55150        1.11480       -0.52360
H          1.13840        1.97130       -0.83200
C         -0.11200        1.15970        0.70510
H         -0.01730        2.04940        1.31530
C         -0.86520        0.05890        1.14950
C         -0.95620       -1.07990        0.33410
H         -1.52000       -1.94720        0.65420
C         -0.28200       -1.12990       -0.88650
H         -0.35040       -2.03270       -1.48000
C          0.48660       -0.03780       -1.32400
O          1.87350        0.83780       -3.00700
C          1.23970       -0.12530       -2.59660
O          1.27290       -1.30610       -3.26490
O         -1.16860        1.07960        3.34510
O         -2.13350       -0.88960        2.88400
C          1.99880       -1.53150       -4.41440
H          1.62490       -0.87760       -5.23180
H          3.07430       -1.31490       -4.23040
C          1.85510       -2.99090       -4.81620
H          0.78690       -3.23270       -5.00040
H          2.23970       -3.64490       -4.00380
H          2.43730       -3.18650       -5.74070
C          5.48410       -2.02700       -0.29030
C          4.79850        0.00640        2.84400
H          5.37090        0.57190        3.56840
C          5.47530       -0.62390        1.79500
H          6.55270       -0.53000        1.73880
C          4.76930       -1.36180        0.82890
C          3.37170       -1.45940        0.93690
H          2.79870       -2.01930        0.20850
C          2.69630       -0.83150        1.98830
H          1.62090       -0.92580        2.04180
C          3.40030       -0.08870        2.95280
O          3.28700        1.26760        4.87270
C          2.67290        0.59560        4.05440
O          1.32090        0.50440        4.12300
O          4.79540       -2.72830       -1.21660
O          6.70110       -1.94270       -0.38190
C          0.51760        1.24340        4.97320
H          0.76810        1.03120        6.03530
H          0.67310        2.32580        4.76870
C         -0.94220        0.89580        4.69660
H         -1.62130        1.54130        5.29230
H         -1.10740       -0.16340        4.99760
H          5.24350       -3.16780       -1.95360

