%chk=PET_uff_007_gaussian.chk
%nproc=4
%mem=4000Mb
#p 6-31g* mp2

Conformer number 007. Energy MM = 191.696 kcal/mol

0 1
C         -1.62300        0.16070        2.39960
C         -1.63450       -0.24610       -1.36880
H         -1.97330       -0.98080       -2.08850
C         -1.85530       -0.48570       -0.01120
H         -2.35680       -1.40010        0.28040
C         -1.42340        0.43700        0.95710
C         -0.77120        1.60820        0.53750
H         -0.42230        2.33560        1.26000
C         -0.54930        1.84800       -0.82230
H         -0.03710        2.75620       -1.11450
C         -0.97490        0.92130       -1.78970
O         -1.08900        0.34790       -4.06400
C         -0.72070        1.16550       -3.23050
O         -0.06420        2.28910       -3.61950
O         -1.17170        1.04580        3.32920
O         -2.14770       -0.88890        2.74900
C          0.26290        2.57200       -4.93000
H          0.93060        1.77750       -5.33030
H         -0.65990        2.62150       -5.54860
C          0.98280        3.90920       -4.99850
H          1.91090        3.87350       -4.38940
H          0.32340        4.71530       -4.61210
H          1.25100        4.13620       -6.05190
C          4.91660       -1.92040       -0.93340
C          2.63760       -2.37020        2.07230
H          2.16270       -3.18790        2.60000
C          3.43400       -2.65720        0.95850
H          3.55550       -3.68980        0.65600
C          4.06630       -1.62270        0.24570
C          3.88150       -0.29630        0.66790
H          4.35360        0.52320        0.14080
C          3.08320       -0.00930        1.77790
H          2.96160        1.02480        2.07490
C          2.45450       -1.04200        2.49450
O          1.07530       -1.61690        4.31160
C          1.60690       -0.72180        3.66970
O          1.40770        0.58070        4.00340
O          5.52470       -0.91660       -1.60320
O          5.07570       -3.07430       -1.30520
C          0.54620        1.06960        4.96940
H          0.82490        0.69710        5.97870
H          0.64730        2.17550        4.96720
C         -0.91020        0.72150        4.64960
H         -1.58560        1.28730        5.32540
H         -1.07340       -0.36100        4.84040
H          6.08700       -1.08870       -2.37170

