%chk=PET_uff_109_gaussian.chk
%nproc=4
%mem=4000Mb
#p 6-31g* mp2

Conformer number 109. Energy MM = 214.563 kcal/mol

0 1
C         -1.33710       -0.05170        2.54660
C         -0.60050       -0.86340       -1.08850
H         -0.98680       -1.52930       -1.85040
C         -1.21920       -0.84440        0.16480
H         -2.06490       -1.49860        0.33700
C         -0.73430       -0.01210        1.18970
C          0.36920        0.81660        0.92520
H          0.77040        1.46560        1.69320
C          0.99100        0.79390       -0.32720
H          1.85210        1.42920       -0.49250
C          0.51990       -0.05410       -1.34390
O          0.80120       -0.85440       -3.53500
C          1.21720       -0.11480       -2.65270
O          2.34900        0.61130       -2.84610
O         -0.81490        0.72430        3.53660
O         -2.22360       -0.85760        2.78840
C          3.14100        0.51960       -3.97280
H          3.51840       -0.52160       -4.08040
H          2.55270        0.79140       -4.87610
C          4.32630        1.46250       -3.83890
H          4.92410        1.19690       -2.94090
H          3.96950        2.50970       -3.74220
H          4.97320        1.38220       -4.73790
C         -6.21310        6.96060        7.05790
C         -5.80810        3.19020        7.07900
H         -6.35450        2.33370        7.45520
C         -6.33640        4.46530        7.29090
H         -7.27510        4.55880        7.82280
C         -5.65740        5.60460        6.82670
C         -4.44010        5.43880        6.14290
H         -3.89320        6.29740        5.77410
C         -3.91060        4.16090        5.93160
H         -2.96840        4.06540        5.40660
C         -4.58920        3.02320        6.39790
O         -4.62630        0.69170        6.62630
C         -4.02180        1.66660        6.19650
O         -2.81790        1.50550        5.58240
O         -5.55140        8.05140        6.61390
O         -7.27090        7.10130        7.65500
C         -2.16150        0.29080        5.55650
H         -1.98530       -0.03470        6.60500
H         -2.79040       -0.48110        5.07200
C         -0.78760        0.40640        4.88620
H         -0.24700       -0.55740        5.00650
H         -0.20420        1.18670        5.41910
H         -5.89590        8.94410        6.75880

