%chk=PET_uff_194_gaussian.chk
%nproc=4
%mem=4000Mb
#p 6-31g* mp2

Conformer number 194. Energy MM = 207.770 kcal/mol

0 1
C         -1.62450        0.21510        2.42740
C         -4.51050       -0.30110        0.02120
H         -4.76760       -0.97910       -0.78300
C         -3.27480       -0.45160        0.65670
H         -2.61150       -1.24260        0.32940
C         -2.90730        0.40230        1.71000
C         -3.79740        1.41300        2.11060
H         -3.54750        2.08090        2.92550
C         -5.03550        1.55830        1.48100
H         -5.70590        2.33700        1.82340
C         -5.40730        0.69990        0.43160
O         -7.52430        1.68160        0.16310
C         -6.73000        0.83490       -0.22560
O         -7.05820        0.00880       -1.25240
O         -1.28190        1.07480        3.41980
O         -0.91670       -0.75270        2.18360
C         -8.28640        0.00910       -1.88080
H         -9.08120       -0.26060       -1.15060
H         -8.49880        1.01710       -2.29920
C         -8.27700       -1.00580       -3.01300
H         -8.06760       -2.02120       -2.61450
H         -7.49460       -0.73700       -3.75440
H         -9.26540       -1.01230       -3.51880
C         -8.11080        4.61860        6.56810
C         -6.38960        1.23730        6.75070
H         -6.63660        0.23070        7.06480
C         -7.36590        2.23450        6.85130
H         -8.34100        1.97280        7.24090
C         -7.08290        3.55440        6.45520
C         -5.80610        3.85310        5.95130
H         -5.55680        4.85920        5.63820
C         -4.83290        2.85630        5.84800
H         -3.85840        3.12240        5.45630
C         -5.11140        1.53790        6.24950
O         -4.28720       -0.65150        6.52010
C         -4.06480        0.49080        6.14130
O         -2.86760        0.81040        5.59120
O         -7.82020        5.88560        6.19790
O         -9.22280        4.35990        7.00150
C         -1.79540       -0.04620        5.44080
H         -1.39480       -0.33910        6.43490
H         -2.11750       -0.96100        4.89590
C         -0.72530        0.67500        4.61940
H          0.16500        0.03000        4.45330
H         -0.40390        1.57890        5.17940
H         -8.47250        6.59620        6.27070

