%chk=PET_uff_133_gaussian.chk
%nproc=4
%mem=4000Mb
#p 6-31g* mp2

Conformer number 133. Energy MM = 230.667 kcal/mol

0 1
C         -1.52500        0.17920        2.34650
C         -0.61510       -0.83380       -1.19310
H         -0.96290       -1.54170       -1.93510
C         -1.29540       -0.74640        0.02440
H         -2.14920       -1.39150        0.19180
C         -0.86080        0.14330        1.02210
C          0.25550        0.95710        0.76930
H          0.61940        1.64840        1.51920
C          0.93710        0.86800       -0.44650
H          1.80530        1.49590       -0.60270
C          0.51600       -0.03530       -1.43660
O          0.91200       -0.95270       -3.56280
C          1.27540       -0.15970       -2.70390
O          2.40000        0.57950       -2.88560
O         -1.02590        0.99090        3.31740
O         -2.43400       -0.60070        2.58860
C          3.23540        0.46160       -3.97670
H          3.64180       -0.57280       -4.02740
H          2.67420        0.68230       -4.91060
C          4.38920        1.44230       -3.83820
H          4.96080        1.22860       -2.90980
H          4.00030        2.48170       -3.79470
H          5.06960        1.34670       -4.71020
C         -0.59760       -3.35640       12.16720
C         -3.05030       -1.68640        9.79350
H         -4.12100       -1.54170        9.71980
C         -2.53590       -2.38760       10.88980
H         -3.22300       -2.76500       11.63680
C         -1.15140       -2.60460       11.01420
C         -0.29370       -2.10170       10.02370
H          0.77680       -2.25290       10.08850
C         -0.80670       -1.40260        8.92920
H         -0.11620       -1.03520        8.18010
C         -2.19050       -1.18770        8.80060
O         -3.92280       -0.30080        7.47330
C         -2.71930       -0.46950        7.61550
O         -1.84950       -0.05950        6.66120
O          0.73240       -3.56670       12.26630
O         -1.34280       -3.79740       13.03190
C         -2.18780        0.39310        5.40420
H         -2.78410       -0.39780        4.90970
H         -2.79160        1.32440        5.46560
C         -0.88010        0.64460        4.64980
H         -0.24530       -0.26770        4.70150
H         -0.33520        1.46300        5.16670
H          1.11360       -4.06020       13.00630

