%chk=PET_uff_178_gaussian.chk
%nproc=4
%mem=4000Mb
#p 6-31g* mp2

Conformer number 178. Energy MM = 222.344 kcal/mol

0 1
C         -1.42260        0.07840        2.22590
C         -0.61050       -0.77520       -1.37710
H         -0.93970       -1.49030       -2.12090
C         -1.22940       -0.77500       -0.12490
H         -2.01860       -1.49150        0.06660
C         -0.81860        0.12470        0.87380
C          0.21390        1.03310        0.58970
H          0.55760        1.73310        1.34130
C          0.83740        1.02850       -0.66050
H          1.64270        1.72920       -0.84280
C          0.43740        0.11970       -1.65460
O          0.77030       -0.69320       -3.83310
C          1.13110        0.09060       -2.96500
O          2.19700        0.90510       -3.17820
O         -0.99380        0.93500        3.19030
O         -2.23480       -0.79440        2.50220
C          2.96250        0.88890       -4.32580
H          3.40700       -0.12120       -4.46600
H          2.33130        1.13790       -5.20630
C          4.08410        1.90820       -4.20190
H          4.72510        1.66290       -3.32820
H          3.66010        2.92580       -4.06810
H          4.70720        1.89340       -5.12060
C          2.19890       -4.66650       10.91620
C          3.14900       -2.98380        7.65360
H          4.00870       -2.95120        6.99520
C          3.22340       -3.75470        8.81500
H          4.13880       -4.29520        9.02310
C          2.12740       -3.83340        9.69060
C          0.95830       -3.11640        9.38260
H          0.09630       -3.15770       10.03660
C          0.88470       -2.34130        8.22060
H         -0.03210       -1.80680        8.00570
C          1.97780       -2.27110        7.34220
O          2.83390       -1.48400        5.30850
C          1.89230       -1.48020        6.09210
O          0.76220       -0.78360        5.79520
O          1.13230       -4.75320       11.74130
O          3.21710       -5.28780       11.18250
C          0.51730       -0.28620        4.53220
H          1.35780        0.36680        4.20560
H          0.43440       -1.14310        3.82790
C         -0.77090        0.53680        4.49510
H         -0.63620        1.43460        5.13510
H         -1.63830       -0.04250        4.88190
H          1.15550       -5.30060       12.53860

