%chk=PET_uff_094_gaussian.chk
%nproc=4
%mem=4000Mb
#p 6-31g* mp2

Conformer number 094. Energy MM = 208.727 kcal/mol

0 1
C         -1.62670        0.24800        2.24310
C         -3.71430        0.10200       -0.91200
H         -3.91830       -0.61580       -1.69670
C         -2.82240       -0.24910        0.10170
H         -2.36380       -1.23000        0.07290
C         -2.53810        0.64730        1.14660
C         -3.15840        1.90670        1.15180
H         -2.96200        2.61610        1.94610
C         -4.05400        2.25790        0.13690
H         -4.52490        3.23240        0.17190
C         -4.34530        1.35730       -0.90350
O         -5.55390        0.93310       -2.87080
C         -5.31310        1.72050       -1.96490
O         -5.94990        2.91860       -1.91350
O         -1.37850        1.09710        3.27950
O         -1.13970       -0.87590        2.24260
C         -6.89200        3.32850       -2.83390
H         -6.43590        3.37310       -3.84690
H         -7.74370        2.61280       -2.84580
C         -7.40770        4.70650       -2.45210
H         -6.57000        5.43560       -2.43960
H         -7.87500        4.67080       -1.44480
H         -8.16710        5.03990       -3.19020
C         -0.22020       -5.72060       10.36270
C         -2.68890       -3.26910        8.85060
H         -3.75580       -3.08410        8.88990
C         -2.15930       -4.31280        9.61270
H         -2.82980       -4.90420       10.22350
C         -0.78320       -4.59730        9.57460
C          0.05240       -3.80740        8.76690
H          1.11620       -4.00200        8.71450
C         -0.47750       -2.76250        8.00550
H          0.19050       -2.18040        7.38270
C         -1.85400       -2.48650        8.03470
O         -3.63030       -1.22530        7.16510
C         -2.42070       -1.41420        7.18430
O         -1.60500       -0.70340        6.36290
O          1.09980       -6.00020       10.29890
O         -0.94800       -6.40980       11.06300
C         -2.06840       -0.06980        5.23050
H         -2.49120       -0.84910        4.55950
H         -2.87090        0.66010        5.47920
C         -0.93000        0.65810        4.51280
H         -0.04990       -0.00950        4.37700
H         -0.61250        1.52510        5.13010
H          1.48440       -6.73750       10.79370

