%chk=PET_uff_119_gaussian.chk
%nproc=4
%mem=4000Mb
#p 6-31g* mp2

Conformer number 119. Energy MM = 184.050 kcal/mol

0 1
C         -1.92750       -0.01150        2.52730
C         -4.29880       -0.21510       -0.42200
H         -4.84980       -0.98550       -0.94610
C         -3.48770       -0.58460        0.65260
H         -3.43700       -1.63050        0.92920
C         -2.76220        0.38350        1.36710
C         -2.85910        1.73020        0.97850
H         -2.31380        2.49970        1.51110
C         -3.67010        2.10060       -0.10010
H         -3.72930        3.14700       -0.37300
C         -4.40190        1.13210       -0.80860
O         -5.92410        0.67210       -2.53610
C         -5.27720        1.52440       -1.94090
O         -5.36630        2.82900       -2.30850
O         -1.26270        0.93560        3.24360
O         -1.86270       -1.18900        2.85590
C         -6.19480        3.28580       -3.31360
H         -5.93940        2.78400       -4.27270
H         -7.25430        3.06570       -3.05580
C         -6.02120        4.78730       -3.47750
H         -4.96940        5.01960       -3.74860
H         -6.27770        5.30680       -2.53000
H         -6.69060        5.15490       -4.28370
C         -6.26030        6.83460        7.08640
C         -5.59380        3.10040        7.24750
H         -6.06360        2.22350        7.67490
C         -6.20670        4.34540        7.42150
H         -7.13320        4.39690        7.97900
C         -5.62380        5.50870        6.88870
C         -4.42220        5.39940        6.17040
H         -3.94780        6.27620        5.74790
C         -3.81220        4.15400        5.99160
H         -2.88330        4.10470        5.43720
C         -4.38840        2.99240        6.53280
O         -4.18640        0.67850        6.89050
C         -3.72020        1.67880        6.36160
O         -2.58960        1.59560        5.61530
O         -5.67730        7.94830        6.59100
O         -7.30940        6.93020        7.70710
C         -1.78660        0.47580        5.53500
H         -1.32040        0.28370        6.52570
H         -2.39220       -0.41160        5.25180
C         -0.69610        0.71380        4.48700
H          0.00010       -0.15210        4.44170
H         -0.11140        1.61170        4.78110
H         -6.06920        8.82390        6.71910

