%chk=PET_uff_024_gaussian.chk
%nproc=4
%mem=4000Mb
#p 6-31g* mp2

Conformer number 024. Energy MM = 200.856 kcal/mol

0 1
C         -1.57800        0.08760        2.33950
C         -2.80450        0.04780       -1.24430
H         -3.15260       -0.69280       -1.95360
C         -2.43430       -0.37260        0.03350
H         -2.50710       -1.42610        0.27230
C         -1.97280        0.55150        0.98700
C         -1.89240        1.90860        0.63340
H         -1.54110        2.64420        1.34680
C         -2.26660        2.33130       -0.64840
H         -2.19510        3.38350       -0.89340
C         -2.72550        1.40370       -1.60090
O         -3.50800        1.01970       -3.78100
C         -3.11920        1.84340       -2.96280
O         -3.04680        3.15730       -3.30040
O         -1.07590        0.96220        3.25610
O         -1.67770       -1.10140        2.61870
C         -3.37270        3.64300       -4.55090
H         -2.71230        3.18110       -5.31760
H         -4.43230        3.40050       -4.78720
C         -3.19000        5.15180       -4.57920
H         -2.13440        5.41160       -4.35170
H         -3.85430        5.62870       -3.82750
H         -3.44830        5.54080       -5.58690
C         -5.11690        6.40080        9.24610
C         -5.41190        2.94370        7.70470
H         -6.12620        2.12980        7.69960
C         -5.71990        4.10650        8.41730
H         -6.66520        4.16100        8.94330
C         -4.81030        5.17770        8.46440
C         -3.59500        5.06780        7.76850
H         -2.87250        5.87410        7.78620
C         -3.28940        3.90820        7.05150
H         -2.33760        3.85040        6.53820
C         -4.18990        2.83040        7.01860
O         -4.56530        0.60450        6.36690
C         -3.82970        1.58060        6.30540
O         -2.65000        1.50600        5.63760
O         -4.21680        7.40600        9.31470
O         -6.17560        6.49930        9.84980
C         -1.97950        0.32440        5.39610
H         -1.65940       -0.09690        6.37380
H         -2.63780       -0.41600        4.89320
C         -0.73460        0.60100        4.54940
H         -0.08260       -0.29970        4.51800
H         -0.15320        1.41990        5.02450
H         -4.38750        8.20340        9.83590

