%chk=PET_uff_001_gaussian.chk
%nproc=4
%mem=4000Mb
#p 6-31g* mp2

Conformer number 001. Energy MM = 185.805 kcal/mol

0 1
C         -1.67760        0.15210        2.36780
C         -1.69340       -0.24090       -1.40370
H         -2.03190       -0.97200       -2.12720
C         -1.91690       -0.48610       -0.04680
H         -2.41980       -1.40070        0.24190
C         -1.48350        0.43170        0.92500
C         -0.82970        1.60440        0.51020
H         -0.47870        2.32840        1.23510
C         -0.60430        1.84880       -0.84770
H         -0.08860        2.75660       -1.13490
C         -1.02910        0.92640       -1.81890
O         -1.13460        0.36300       -4.09650
C         -0.76630        1.17530       -3.25770
O         -0.09720        2.29470       -3.63810
O         -1.22690        1.04100        3.29160
O         -2.18960       -0.90070        2.72510
C          0.24600        2.57820       -4.94430
H          0.91110        1.77910       -5.33980
H         -0.66960        2.63740       -5.57250
C          0.97880        3.90930       -5.00190
H          1.90060        3.86360       -4.38370
H          0.32320        4.72040       -4.62000
H          1.25990        4.13660       -6.05180
C          6.52180        3.14800        1.03100
C          4.83310        0.19170        2.71410
H          5.07640       -0.83450        2.95930
C          5.78820        0.97370        2.05650
H          6.74580        0.53120        1.81160
C          5.50980        2.31140        1.72220
C          4.25560        2.84750        2.05480
H          4.01000        3.87360        1.81100
C          3.30000        2.06560        2.70820
H          2.34330        2.51100        2.95070
C          3.57870        0.73050        3.04800
O          2.80100       -1.24150        4.07040
C          2.55650       -0.08680        3.74710
O          1.33910        0.45420        4.00100
O          6.24440        4.43520        0.72580
O          7.61290        2.68250        0.73790
C          0.30130       -0.18730        4.64570
H          0.07240       -1.14390        4.12750
H          0.58150       -0.40790        5.69830
C         -0.92950        0.72100        4.60410
H         -0.69270        1.65910        5.14990
H         -1.80010        0.23870        5.09990
H          6.89180        4.99990        0.28040

