%chk=PET_uff_099_gaussian.chk
%nproc=4
%mem=4000Mb
#p 6-31g* mp2

Conformer number 099. Energy MM = 176.598 kcal/mol

0 1
C         -1.46060       -0.02050        2.38960
C         -1.51220       -0.38490       -1.38820
H         -1.80860       -1.13250       -2.11320
C         -1.68150       -0.66260       -0.02900
H         -2.10340       -1.61750        0.25940
C         -1.30340        0.27760        0.94420
C         -0.76020        1.50570        0.52790
H         -0.45790        2.25170        1.25260
C         -0.59080        1.78350       -0.83190
H         -0.16310        2.73600       -1.11980
C         -0.96130        0.84000       -1.80480
O         -1.07050        0.29230       -4.08610
C         -0.76240        1.12880       -3.24720
O         -0.22520        2.31620       -3.63150
O         -1.08930        0.91140        3.30500
O         -1.90970       -1.10060        2.74860
C          0.07160        2.63660       -4.94100
H          0.83070        1.92640       -5.33680
H         -0.84680        2.57680       -5.56510
C          0.62710        4.05060       -5.00880
H          1.54730        4.12960       -4.39190
H         -0.12790        4.77310       -4.63240
H          0.87540        4.30490       -6.06100
C          2.87700        8.19520        2.85490
C          3.32830        4.97560        4.81820
H          4.07460        4.53150        5.46500
C          3.56990        6.24350        4.27920
H          4.49730        6.74640        4.52390
C          2.62570        6.85240        3.43330
C          1.43510        6.16780        3.14030
H          0.68820        6.60840        2.49190
C          1.19260        4.90260        3.68000
H          0.26490        4.40190        3.43170
C          2.13590        4.29210        4.52390
O          2.69840        2.39240        5.79320
C          1.86830        2.94490        5.08410
O          0.69290        2.33080        4.79560
O          1.96290        8.76510        2.03940
O          3.91210        8.79420        3.10970
C          0.35570        1.04950        5.17880
H          1.07560        0.32560        4.73700
H          0.38100        0.96110        6.28690
C         -1.04950        0.73890        4.67710
H         -1.76660        1.44590        5.14580
H         -1.32830       -0.29400        4.98050
H          2.10770        9.63870        1.64890

