%chk=PET_uff_137_gaussian.chk
%nproc=4
%mem=4000Mb
#p 6-31g* mp2

Conformer number 137. Energy MM = 191.766 kcal/mol

0 1
C         -1.84850       -0.08530        2.83530
C         -4.61200       -0.55570        0.27750
H         -4.85260       -1.25400       -0.51410
C         -3.42380       -0.73320        0.99090
H         -2.78040       -1.56480        0.73140
C         -3.08090        0.13970        2.03930
C         -3.94510        1.20460        2.34510
H         -3.71080        1.89290        3.14770
C         -5.13680        1.37910        1.63450
H         -5.78970        2.20010        1.90430
C         -5.48710        0.49680        0.59810
O         -7.06500       -0.11130       -1.03210
C         -6.77140        0.65820       -0.12660
O         -7.63980        1.63290        0.25070
O         -1.53270        0.75780        3.85510
O         -1.14280       -1.05780        2.60080
C         -8.90310        1.78680       -0.28340
H         -8.83450        1.97070       -1.37780
H         -9.50030        0.86570       -0.10300
C         -9.59790        2.96370        0.38350
H         -9.02260        3.89640        0.20410
H         -9.67650        2.78840        1.47780
H        -10.61940        3.08230       -0.03560
C          5.02060       -0.10260       -1.56520
C          4.56040        1.19660        1.97160
H          5.16230        1.68780        2.72610
C          5.15050        0.87050        0.74700
H          6.19220        1.11960        0.58740
C          4.40230        0.23490       -0.25940
C          3.05440       -0.07400       -0.01150
H          2.45110       -0.56300       -0.76610
C          2.46590        0.24680        1.21480
H          1.42410       -0.00250        1.37340
C          3.21100        0.88900        2.21790
O          3.21080        1.85030        4.36130
C          2.57650        1.23750        3.51230
O          1.29770        0.85240        3.75840
O          4.28620       -0.69670       -2.53110
O          6.19540        0.16020       -1.77910
C          0.59100        1.19160        4.89410
H          1.17490        0.90420        5.79660
H          0.40440        2.28750        4.91550
C         -0.72240        0.42120        4.92640
H         -1.26750        0.65800        5.86440
H         -0.49360       -0.66800        4.94110
H          4.66770       -0.91740       -3.39260

