%chk=PET_uff_208_gaussian.chk
%nproc=4
%mem=4000Mb
#p 6-31g* mp2

Conformer number 208. Energy MM = 191.731 kcal/mol

0 1
C         -1.99770        0.06420        2.31060
C         -4.25300       -0.06990       -0.73520
H         -4.60730       -0.81910       -1.43230
C         -3.37890       -0.45920        0.28260
H         -3.08130       -1.49860        0.34450
C         -2.90160        0.48100        1.21230
C         -3.31110        1.81950        1.09800
H         -2.96250        2.56650        1.80010
C         -4.19070        2.20780        0.08360
H         -4.49630        3.24520        0.02850
C         -4.67430        1.26680       -0.84150
O         -6.02950        0.85880       -2.71610
C         -5.62500        1.67910       -1.90200
O         -6.06830        2.96210       -1.94610
O         -1.50760        0.99230        3.17580
O         -1.70310       -1.11680        2.44260
C         -6.99520        3.42630       -2.85650
H         -6.60410        3.30590       -3.89040
H         -7.94280        2.85320       -2.75310
C         -7.27540        4.89670       -2.59000
H         -6.34110        5.48760       -2.69620
H         -7.67340        5.02620       -1.56090
H         -8.02630        5.27260       -3.31630
C          2.25980       -1.91090       11.82570
C          0.93830       -2.56750        8.33020
H          1.00890       -3.34980        7.58470
C          1.60740       -2.73430        9.54530
H          2.17710       -3.64120        9.70580
C          1.54330       -1.74100       10.53770
C          0.79140       -0.58020       10.29020
H          0.72290        0.20340       11.03420
C          0.11840       -0.41510        9.07610
H         -0.45080        0.49190        8.91430
C          0.18760       -1.40550        8.08220
O         -0.41490       -2.07280        5.91510
C         -0.51790       -1.22380        6.79080
O         -1.29570       -0.12600        6.59310
O          2.20340       -0.94390       12.76710
O          2.90990       -2.92370       12.04210
C         -1.90690        0.19130        5.39490
H         -2.47370       -0.68800        5.01800
H         -2.63380        1.01210        5.57420
C         -0.87910        0.68420        4.36780
H         -0.07670       -0.06410        4.19130
H         -0.40450        1.60530        4.76890
H          2.66890       -1.03270       13.61080

