%Mem=61440MB 
%NProc=8 

#P B3LYP/6-31G(d) Integral=Ultrafine Opt=(Tight,MaxCycle=55) GFInput GFPrint SCF(Conver=8,XQC,MaxConventionalCycles=64,MaxCycle=128) Test 

 Optimization step - Input generated by PyRED DVE-DMDS-OPLS 

0 1 
C        8.469000         0.950000         2.410000
H        8.895000         1.725000         1.768000
H        7.460000         1.259000         2.696000
H        9.078000         0.873000         3.316000
C        8.430000        -0.377000         1.682000
H        9.447000        -0.698000         1.404000
H        8.007000        -1.163000         2.327000
O        7.641000        -0.227000         0.522000
C        7.544000        -1.407000        -0.240000
H        7.127000        -2.228000         0.364000
H        8.543000        -1.720000        -0.587000
C        6.652000        -1.169000        -1.443000
H        6.981000        -0.256000        -1.960000
H        6.766000        -2.013000        -2.131000
O        5.280000        -1.102000        -1.135000
C        4.832000         0.137000        -0.625000
H        5.149000         0.964000        -1.278000
H        5.231000         0.333000         0.375000
C        3.319000         0.071000        -0.586000
H        3.000000        -0.755000         0.068000
H        2.939000        -0.138000        -1.595000
O        2.856000         1.307000        -0.089000
C        1.470000         1.365000         0.159000
H        1.311000         2.197000         0.849000
H        1.133000         0.445000         0.660000
C        0.665000         1.609000        -1.116000
H        0.817000         0.809000        -1.847000
H        1.001000         2.540000        -1.579000
S       -1.119000         1.808000        -0.818000
C       -1.617000         0.067000        -0.581000
H       -1.293000        -0.520000        -1.445000
H       -1.141000        -0.345000         0.313000
C       -3.132000         0.001000        -0.440000
H       -3.610000         0.385000        -1.347000
H       -3.454000         0.615000         0.405000
S       -3.634000        -1.735000        -0.188000
C       -5.449000        -1.566000        -0.238000
H       -5.835000        -2.579000        -0.378000
H       -5.724000        -0.993000        -1.129000
C       -6.047000        -0.955000         1.024000
H       -5.805000        -1.577000         1.888000
H       -5.631000         0.037000         1.222000
S       -7.867000        -0.852000         0.983000
C       -8.131000         0.600000        -0.092000
H       -7.576000         0.467000        -1.026000
H       -9.192000         0.555000        -0.352000
C       -7.800000         1.937000         0.557000
H       -6.743000         2.006000         0.830000
H       -8.016000         2.759000        -0.134000
H       -8.391000         2.086000         1.465000
 

