%Mem=61440MB 
%NProc=8 

#P B3LYP/6-31G(d) Integral=Ultrafine Opt=(Tight,MaxCycle=55) GFInput GFPrint SCF(Conver=8,XQC,MaxConventionalCycles=64,MaxCycle=128) Test 

 Optimization step - Input generated by PyRED DVE-DMDS-OPLS 

0 1 
C        8.793000         1.069000        -1.043000
H        9.112000         0.816000        -0.027000
H        9.516000         0.634000        -1.740000
H        8.820000         2.157000        -1.146000
C        7.393000         0.551000        -1.334000
H        7.099000         0.812000        -2.355000
H        7.362000        -0.545000        -1.258000
O        6.420000         1.140000        -0.486000
C        6.260000         0.505000         0.767000
H        5.905000         1.271000         1.464000
H        7.222000         0.128000         1.144000
C        5.250000        -0.633000         0.743000
H        5.493000        -1.343000        -0.064000
H        5.310000        -1.174000         1.693000
O        3.912000        -0.200000         0.628000
C        3.506000         0.182000        -0.678000
H        3.736000        -0.620000        -1.396000
H        4.040000         1.084000        -0.996000
C        2.015000         0.451000        -0.675000
H        1.758000         0.985000        -1.594000
H        1.763000         1.105000         0.169000
O        1.198000        -0.704000        -0.690000
C        1.236000        -1.548000         0.441000
H        2.217000        -2.028000         0.538000
H        0.503000        -2.331000         0.224000
C        0.919000        -0.892000         1.782000
H        1.739000        -0.234000         2.079000
H        0.855000        -1.685000         2.534000
S       -0.576000         0.149000         1.868000
C       -1.860000        -0.961000         1.192000
H       -1.593000        -1.998000         1.413000
H       -2.773000        -0.746000         1.755000
C       -2.090000        -0.766000        -0.304000
H       -1.161000        -0.922000        -0.857000
H       -2.399000         0.263000        -0.508000
S       -3.308000        -1.929000        -1.005000
C       -4.881000        -1.191000        -0.445000
H       -4.802000        -0.923000         0.612000
H       -5.627000        -1.986000        -0.513000
C       -5.318000         0.003000        -1.287000
H       -4.547000         0.778000        -1.308000
H       -5.476000        -0.311000        -2.321000
S       -6.898000         0.734000        -0.744000
C       -6.371000         1.707000         0.708000
H       -7.302000         1.953000         1.226000
H       -5.799000         1.066000         1.386000
C       -5.599000         2.977000         0.373000
H       -4.663000         2.757000        -0.149000
H       -6.192000         3.635000        -0.266000
H       -5.345000         3.520000         1.290000
 

