%Mem=61440MB 
%NProc=8 

#P B3LYP/6-31G(d) Integral=Ultrafine Opt=(Tight,MaxCycle=55) GFInput GFPrint SCF(Conver=8,XQC,MaxConventionalCycles=64,MaxCycle=128) Test 

 Optimization step - Input generated by PyRED DVE-DMDS-OPLS 

0 1 
C        0.882000         3.905000        -0.149000
H        1.726000         4.601000        -0.115000
H        0.070000         4.392000        -0.698000
H        0.539000         3.722000         0.873000
C        1.250000         2.592000        -0.823000
H        0.378000         1.935000        -0.862000
H        1.595000         2.767000        -1.853000
O        2.237000         1.857000        -0.117000
C        3.537000         2.394000        -0.183000
H        3.651000         3.252000         0.497000
H        3.759000         2.737000        -1.204000
C        4.532000         1.325000         0.201000
H        5.525000         1.783000         0.332000
H        4.235000         0.885000         1.165000
O        4.571000         0.359000        -0.823000
C        5.513000        -0.673000        -0.623000
H        6.450000        -0.259000        -0.218000
H        5.724000        -1.091000        -1.611000
C        5.035000        -1.801000         0.281000
H        4.646000        -1.400000         1.227000
H        5.904000        -2.426000         0.524000
O        4.080000        -2.628000        -0.343000
C        2.743000        -2.546000         0.111000
H        2.723000        -2.286000         1.178000
H        2.316000        -3.548000         0.011000
C        1.915000        -1.555000        -0.700000
H        1.904000        -1.869000        -1.747000
H        2.338000        -0.550000        -0.662000
S        0.172000        -1.504000        -0.175000
C        0.317000        -0.556000         1.380000
H        0.853000        -1.157000         2.122000
H        0.897000         0.350000         1.186000
C       -1.053000        -0.208000         1.959000
H       -0.912000         0.168000         2.976000
H       -1.681000        -1.100000         2.041000
S       -1.980000         1.104000         1.090000
C       -3.054000         0.165000        -0.050000
H       -2.459000        -0.561000        -0.606000
H       -3.406000         0.912000        -0.768000
C       -4.234000        -0.503000         0.646000
H       -3.885000        -1.260000         1.353000
H       -4.807000         0.228000         1.223000
S       -5.335000        -1.408000        -0.492000
C       -6.216000        -0.043000        -1.323000
H       -5.489000         0.644000        -1.766000
H       -6.734000        -0.526000        -2.156000
C       -7.209000         0.704000        -0.443000
H       -6.714000         1.198000         0.398000
H       -7.725000         1.477000        -1.022000
H       -7.959000         0.020000        -0.036000
 

