%Mem=61440MB 
%NProc=8 

#P B3LYP/6-31G(d) Integral=Ultrafine Opt=(Tight,MaxCycle=55) GFInput GFPrint SCF(Conver=8,XQC,MaxConventionalCycles=64,MaxCycle=128) Test 

 Optimization step - Input generated by PyRED DVE-DMDS-OPLS 

0 1 
C       12.302000         0.937000         0.001000
H       13.283000         0.453000         0.001000
H       12.228000         1.574000        -0.885000
H       12.228000         1.573000         0.887000
C       11.197000        -0.098000         0.000000
H       11.274000        -0.748000        -0.886000
H       11.274000        -0.749000         0.886000
O        9.957000         0.574000         0.001000
C        8.856000        -0.298000         0.000000
H        8.862000        -0.949000         0.887000
H        8.862000        -0.948000        -0.888000
C        7.601000         0.551000         0.001000
H        7.593000         1.200000         0.889000
H        7.593000         1.202000        -0.887000
O        6.496000        -0.320000         0.001000
C        5.261000         0.352000         0.000000
H        5.158000         0.993000        -0.888000
H        5.158000         0.994000         0.888000
C        4.171000        -0.700000         0.001000
H        4.273000        -1.341000         0.889000
H        4.274000        -1.341000        -0.887000
O        2.934000        -0.028000         0.000000
C        1.831000        -0.902000        -0.001000
H        1.852000        -1.552000         0.887000
H        1.853000        -1.552000        -0.888000
C        0.576000        -0.047000        -0.001000
H        0.575000         0.592000        -0.889000
H        0.575000         0.593000         0.886000
S       -0.900000        -1.112000        -0.001000
C       -2.182000         0.183000        -0.002000
H       -2.061000         0.813000         0.885000
H       -2.061000         0.812000        -0.889000
C       -3.558000        -0.468000        -0.001000
H       -3.679000        -1.097000         0.886000
H       -3.679000        -1.099000        -0.887000
S       -4.840000         0.828000        -0.002000
C       -6.323000        -0.234000        -0.000000
H       -6.309000        -0.874000         0.887000
H       -6.310000        -0.875000        -0.886000
C       -7.571000         0.639000        -0.000000
H       -7.581000         1.281000         0.886000
H       -7.583000         1.279000        -0.887000
S       -9.053000        -0.422000         0.002000
C      -10.340000         0.868000         0.001000
H      -10.211000         1.500000         0.885000
H      -10.212000         1.498000        -0.885000
C      -11.722000         0.227000         0.002000
H      -12.496000         0.999000         0.002000
H      -11.867000        -0.400000        -0.883000
H      -11.866000        -0.398000         0.888000
 

