%Mem=61440MB 
%NProc=8 

#P B3LYP/6-31G(d) Integral=Ultrafine Opt=(Tight,MaxCycle=55) GFInput GFPrint SCF(Conver=8,XQC,MaxConventionalCycles=64,MaxCycle=128) Test 

 Optimization step - Input generated by PyRED DVE-DMDS-OPLS 

0 1 
C        6.589276         1.515854         2.039481
H        6.908786         0.545641         2.436854
H        7.181457         2.291164         2.540490
H        5.535642         1.663108         2.299271
C        6.782196         1.600031         0.526097
H        6.502721         2.597620         0.170465
H        7.842720         1.445551         0.268522
O        5.965150         0.701660        -0.213385
C        6.375619        -0.657895        -0.212781
H        7.383820        -0.768928         0.213012
H        6.411383        -0.995587        -1.256626
C        5.408826        -1.551934         0.551226
H        5.824561        -2.574035         0.614090
H        5.278459        -1.179571         1.579639
O        4.174288        -1.553776        -0.135129
C        3.107731        -2.154970         0.574830
H        3.055728        -1.760658         1.602725
H        3.247438        -3.249137         0.639935
C        1.801705        -1.849058        -0.144725
H        1.002590        -2.454850         0.296970
H        1.893112        -2.124589        -1.206045
O        1.387105        -0.499299        -0.013226
C        2.015338         0.430016        -0.890871
H        2.078851         0.006067        -1.903894
H        3.039161         0.644111        -0.557122
C        1.208939         1.722008        -0.916345
H        1.787052         2.477123        -1.459867
H        1.058613         2.097602         0.101826
S       -0.426846         1.628432        -1.763568
C       -1.610487         1.532966        -0.361618
H       -1.331389         2.300184         0.372586
H       -2.569010         1.832353        -0.796912
C       -1.728339         0.176978         0.338905
H       -2.376689         0.271279         1.219671
H       -0.740902        -0.144933         0.674536
S       -2.390106        -1.191981        -0.704097
C       -4.123676        -1.321117        -0.097309
H       -4.113752        -1.388929         0.995968
H       -4.484090        -2.282389        -0.476021
C       -5.045725        -0.199425        -0.577221
H       -4.696665         0.780415        -0.236600
H       -5.063345        -0.170880        -1.670624
S       -6.801905        -0.423883        -0.068774
C       -6.756761         0.088512         1.699315
H       -7.707677        -0.272278         2.105509
H       -5.964651        -0.465381         2.215015
C       -6.616737         1.593487         1.925512
H       -7.435636         2.138938         1.446535
H       -6.631710         1.819415         2.999431
H       -5.674655         1.979074         1.520641
 

