%Mem=61440MB 
%NProc=8 

#P B3LYP/6-31G(d) Integral=Ultrafine Opt=(Tight,MaxCycle=55) GFInput GFPrint SCF(Conver=8,XQC,MaxConventionalCycles=64,MaxCycle=128) Test 

 Optimization step - Input generated by PyRED DVE-DMDS-OPLS 

0 1 
C        9.071026        -1.769997         0.882535
H        9.939752        -1.926937         1.532597
H        8.215311        -2.272602         1.346301
H        9.270664        -2.249721        -0.081566
C        8.822384        -0.274662         0.691449
H        8.609474         0.205792         1.660846
H        9.716121         0.202336         0.275274
O        7.781861         0.020061        -0.232027
C        6.472895        -0.213171         0.250561
H        6.321539         0.264199         1.232587
H        6.270288        -1.288901         0.371644
C        5.508793         0.398840        -0.766355
H        5.684646         1.477502        -0.823790
H        5.699884        -0.027309        -1.761906
O        4.151680         0.219950        -0.383792
C        3.571439        -1.009673        -0.803562
H        4.116221        -1.867111        -0.375984
H        3.611551        -1.098280        -1.900764
C        2.124762        -1.076673        -0.332305
H        2.075710        -0.826467         0.735799
H        1.773534        -2.107653        -0.447395
O        1.208355        -0.300086        -1.090056
C        1.317589         1.114276        -1.014404
H        0.496263         1.481969        -1.638318
H        2.258958         1.457400        -1.464642
C        1.232780         1.735869         0.383667
H        1.193983         2.825138         0.261771
H        2.138752         1.511027         0.954315
S       -0.143268         1.196349         1.477517
C       -1.627124         1.468683         0.417610
H       -2.416364         1.807518         1.095580
H       -1.425632         2.291479        -0.275275
C       -2.060496         0.208888        -0.336559
H       -2.306081        -0.592724         0.366903
H       -1.246748        -0.164238        -0.963392
S       -3.477130         0.490592        -1.479408
C       -4.901053         0.590531        -0.314286
H       -5.701054         1.054267        -0.899739
H       -4.668634         1.274569         0.507144
C       -5.343681        -0.770996         0.223755
H       -5.576412        -1.455135        -0.597481
H       -4.543413        -1.234613         0.808861
S       -6.766583        -0.675535         1.387552
C       -8.177430        -0.369840         0.244494
H       -8.996690        -0.077601         0.910025
H       -7.954590         0.501907        -0.380324
C       -8.582979        -1.571727        -0.607581
H       -8.846502        -2.426917         0.022369
H       -9.451157        -1.319276        -1.229546
H       -7.776287        -1.883600        -1.279581
 

