%Mem=61440MB 
%NProc=8 

#P B3LYP/6-31G(d) Integral=Ultrafine Opt=(Tight,MaxCycle=55) GFInput GFPrint SCF(Conver=8,XQC,MaxConventionalCycles=64,MaxCycle=128) Test 

 Optimization step - Input generated by PyRED DVE-DMDS-OPLS 

0 1 
C        8.142092         0.840263         1.132123
H        8.752346        -0.064857         1.042094
H        8.250620         1.420951         0.209944
H        8.546259         1.431834         1.961850
C        6.671120         0.516179         1.387449
H        6.561134        -0.071643         2.313244
H        6.100777         1.442551         1.514603
O        6.041310        -0.164338         0.305947
C        6.380086        -1.534927         0.185197
H        6.276940        -2.045628         1.155844
H        7.423263        -1.655513        -0.151116
C        5.463921        -2.207442        -0.832693
H        5.422775        -1.589454        -1.740597
H        5.912335        -3.175013        -1.101894
O        4.151704        -2.475097        -0.336081
C        3.051321        -1.704180        -0.825860
H        2.186430        -2.377672        -0.871689
H        3.252036        -1.350490        -1.847878
C        2.706866        -0.528056         0.098113
H        3.547518         0.171252         0.152517
H        2.521806        -0.916429         1.105718
O        1.509584         0.128833        -0.316905
C        1.704486         1.166416        -1.267871
H        2.147025         0.769779        -2.197704
H        2.393691         1.924153        -0.865593
C        0.356699         1.795102        -1.592993
H       -0.367244         1.022758        -1.870135
H        0.465698         2.458927        -2.457597
S       -0.366183         2.869048        -0.292562
C       -0.941864         1.683999         0.996496
H       -0.079615         1.340694         1.574236
H       -1.571662         2.300364         1.646412
C       -1.719140         0.458638         0.520508
H       -2.084365        -0.065907         1.411469
H       -1.050786        -0.220275        -0.017301
S       -3.159320         0.902403        -0.538763
C       -4.013022        -0.722879        -0.566335
H       -3.273967        -1.502374        -0.793724
H       -4.691332        -0.674696        -1.424239
C       -4.785728        -1.106301         0.702657
H       -5.068574        -2.164755         0.651602
H       -4.153904        -0.996626         1.589652
S       -6.280428        -0.104221         1.063402
C       -7.475301        -0.752820        -0.176467
H       -8.314286        -0.051089        -0.118478
H       -7.049707        -0.646935        -1.180858
C       -7.960565        -2.180930         0.070668
H       -7.139712        -2.904871         0.024705
H       -8.432246        -2.269208         1.054288
H       -8.694997        -2.469070        -0.692244
 

