%Mem=61440MB 
%NProc=8 

#P B3LYP/6-31G(d) Integral=Ultrafine SCF(Conver=8,XQC,MaxConventionalCycles=64,MaxCycle=128) NoSymm Test 
   Pop=mk IOp(6/33=2) GFInput GFPrint 

 MEP step - Input generated by PyRED DVE-DMDS-OPLS 

0 1 
C        9.400221        -1.167910         0.513528
H        8.711269        -1.427432        -0.296593
H       10.259864        -0.648455         0.078215
H        9.751132        -2.093643         0.982903
C        8.706364        -0.282465         1.536132
H        7.854202        -0.818788         1.984053
H        9.395970        -0.025020         2.359072
O        8.278766         0.898981         0.876651
C        7.700265         1.874173         1.721596
H        7.736137         2.816385         1.164597
H        8.295604         1.996433         2.642847
C        6.251989         1.597026         2.109157
H        6.151772         0.604370         2.579438
H        5.936582         2.344037         2.859435
O        5.443537         1.679755         0.952765
C        4.078170         1.412297         1.199947
H        3.655425         2.124356         1.928140
H        3.950726         0.399050         1.617100
C        3.342287         1.550609        -0.133351
H        3.772772         0.853082        -0.867494
H        3.482549         2.567326        -0.513434
O        1.942742         1.356749         0.000000
C        1.525289         0.000000         0.000000
H        1.894946        -0.543731         0.881698
H        1.914741        -0.516842        -0.892184
C        0.000000        -0.000000         0.000000
H       -0.376983         0.581029        -0.847261
H       -0.369415         0.481446         0.910476
S       -0.723293        -1.686364        -0.006993
C       -0.609446        -2.134845        -1.790747
H        0.386234        -1.892850        -2.173663
H       -0.705920        -3.224641        -1.807479
C       -1.694561        -1.480866        -2.647625
H       -1.605582        -0.390406        -2.618187
H       -2.691049        -1.735341        -2.272139
S       -1.587309        -1.908254        -4.433817
C       -2.208169        -3.645837        -4.410461
H       -3.170305        -3.661771        -3.886912
H       -1.511837        -4.293066        -3.870110
C       -2.364442        -4.143132        -5.847567
H       -3.027634        -3.487499        -6.420447
H       -1.395373        -4.145783        -6.356639
S       -2.963654        -5.876880        -5.954780
C       -4.762006        -5.679918        -5.611181
H       -5.106995        -6.701807        -5.420808
H       -4.891186        -5.125083        -4.675446
C       -5.564807        -5.046124        -6.746377
H       -5.232932        -4.023821        -6.957081
H       -5.467541        -5.628849        -7.667508
H       -6.627597        -4.998725        -6.477303
 

