%Mem=61440MB 
%NProc=8 

#P B3LYP/6-31G(d) Integral=Ultrafine SCF(Conver=8,XQC,MaxConventionalCycles=64,MaxCycle=128) NoSymm Test 
   Pop=mk IOp(6/33=2) GFInput GFPrint 

 MEP step - Input generated by PyRED DVE-DMDS-OPLS 

0 1 
C        0.219916        -7.870167        -0.513528
H        0.670570        -7.288000         0.296593
H       -0.529374        -8.539035        -0.078215
H        1.001517        -8.477801        -0.982903
C       -0.422325        -6.946599        -1.536132
H        0.340887        -6.289841        -1.984053
H       -0.871186        -7.530001        -2.359072
O       -1.425780        -6.190468        -0.876651
C       -2.187723        -5.350763        -1.721596
H       -3.098820        -5.107962        -1.164597
H       -2.479655        -5.883821        -2.642847
C       -1.496920        -4.048033        -2.109157
H       -0.518687        -4.244168        -2.579438
H       -2.118143        -3.526891        -2.859435
O       -1.338241        -3.251001        -0.952765
C       -0.681082        -2.024664        -1.199947
H       -1.237331        -1.411210        -1.928140
H        0.324839        -2.200832        -1.617100
C       -0.596867        -1.280647         0.133351
H       -0.056783        -1.897226         0.867494
H       -1.609874        -1.115709         0.513434
O        0.000000         0.000000        -0.000000
C        1.419519        -0.000000         0.000000
H        1.830497        -0.513212        -0.881698
H        1.798976        -0.524224         0.892184
C        1.868078         1.457841         0.000000
H        1.423605         1.989024         0.847261
H        1.516559         1.952505        -0.910476
S        3.692578         1.653223         0.006993
C        4.087748         1.412520         1.790747
H        3.563643         0.532035         2.173663
H        5.157724         1.184240         1.807479
C        3.781799         2.641975         2.647625
H        2.713392         2.877614         2.618187
H        4.318069         3.519563         2.272139
S        4.158747         2.413779         4.433817
C        6.002078         2.496194         4.410461
H        6.300254         3.411100         3.886912
H        6.415909         1.640316         3.870110
C        6.523341         2.499312         5.847567
H        6.091731         3.325987         6.420447
H        6.240889         1.572315         6.356639
S        8.356639         2.562164         5.954780
C        8.697249         4.338917         5.611181
H        9.775405         4.368132         5.420808
H        8.204938         4.625551         4.675446
C        8.327569         5.292605         6.746377
H        7.252874         5.276046         6.957081
H        8.855922         5.028272         7.667508
H        8.594812         6.322338         6.477303
 

