%Mem=61440MB 
%NProc=8 

#P B3LYP/6-31G(d) Integral=Ultrafine SCF(Conver=8,XQC,MaxConventionalCycles=64,MaxCycle=128) NoSymm Test 
   Pop=mk IOp(6/33=2) GFInput GFPrint 

 MEP step - Input generated by PyRED DVE-DMDS-OPLS 

0 1 
C        6.840299         0.589970         1.593516
H        6.439255        -0.419269         1.740862
H        7.932193         0.527281         1.537031
H        6.577529         1.195999         2.467009
C        6.269891         1.206128         0.326308
H        6.535384         0.596195        -0.554046
H        5.175503         1.257848         0.368105
O        6.834012         2.510870         0.188516
C        6.551325         3.170455        -1.028252
H        6.679115         2.490706        -1.886913
H        7.295460         3.971479        -1.115485
C        5.164495         3.799342        -1.093383
H        4.970856         4.341373        -0.153935
H        5.129992         4.532613        -1.919797
O        4.196500         2.784368        -1.292771
C        2.862325         3.228762        -1.160629
H        2.593913         3.917103        -1.981153
H        2.720237         3.766207        -0.209777
C        1.940488         2.025802        -1.195845
H        2.180225         1.405594        -2.074489
H        0.901278         2.376098        -1.290950
O        2.121779         1.284768         0.000000
C        1.531862         0.000000         0.000000
H        1.899654        -0.486668         0.908260
H        1.880333        -0.584177        -0.869106
C        0.000000        -0.000000         0.000000
H       -0.340378        -1.033396         0.129143
H       -0.397230         0.366268        -0.953428
S       -0.643483         1.050638         1.366852
C       -2.420375         0.570291         1.336098
H       -2.933635         1.373314         1.874459
H       -2.787131         0.590432         0.304743
C       -2.706901        -0.785123         1.985785
H       -2.336225        -0.807877         3.015587
H       -2.197233        -1.588246         1.444499
S       -4.485929        -1.261864         1.960845
C       -5.103197        -0.236241         3.361447
H       -4.640212         0.755820         3.306727
H       -4.792971        -0.694063         4.306976
C       -6.621525        -0.055596         3.316681
H       -6.928438         0.583567         4.153930
H       -6.910358         0.452177         2.390960
S       -7.632192        -1.586953         3.337448
C       -7.237369        -2.249342         5.006850
H       -6.179020        -2.527313         5.047799
H       -7.415258        -1.462840         5.749900
C       -8.112642        -3.468860         5.297032
H       -7.875714        -3.874428         6.287134
H       -9.175741        -3.207355         5.280725
H       -7.944872        -4.260506         4.559159
 

