%Mem=61440MB 
%NProc=8 

#P B3LYP/6-31G(d) Integral=Ultrafine SCF(Conver=8,XQC,MaxConventionalCycles=64,MaxCycle=128) NoSymm Test 
   Pop=mk IOp(6/33=2) GFInput GFPrint 

 MEP step - Input generated by PyRED DVE-DMDS-OPLS 

0 1 
C       -0.123809         4.599843        -7.569621
H       -0.677058         5.385236        -7.044576
H        0.716847         5.060739        -8.100085
H       -0.792655         4.143622        -8.306366
C        0.378143         3.552745        -6.589075
H        0.946324         2.768066        -7.114802
H        1.061375         4.012865        -5.857102
O       -0.751836         2.977640        -5.942762
C       -0.447342         1.934211        -5.033610
H        0.388101         1.316212        -5.396043
H       -1.337054         1.296145        -4.987201
C       -0.116445         2.475016        -3.635491
H        0.789006         3.089672        -3.670717
H       -0.939443         3.110564        -3.279037
O        0.150415         1.418278        -2.715607
C       -1.011674         0.900773        -2.075753
H       -1.755468         0.580857        -2.822460
H       -1.475718         1.675340        -1.446042
C       -0.654891        -0.305880        -1.217501
H       -0.063642        -1.014115        -1.817287
H       -1.593695        -0.801981        -0.940385
O        0.000000        -0.000000         0.000000
C        1.424158         0.000000         0.000000
H        1.802640        -0.564331        -0.862775
H        1.748905        -0.519669         0.908988
C        1.978006         1.425210        -0.000000
H        1.634699         1.951633         0.896499
H        1.609167         1.971762        -0.870081
S        3.811818         1.502051         0.091798
C        4.329177         0.822053        -1.540958
H        5.421067         0.791165        -1.468805
H        3.986196        -0.210191        -1.654291
C        3.881660         1.667061        -2.733574
H        4.179492         2.712286        -2.601374
H        2.791850         1.641933        -2.825791
S        4.480524         1.037253        -4.357398
C        6.268710         1.459192        -4.293078
H        6.719596         0.866430        -5.094490
H        6.685664         1.090167        -3.347817
C        6.636501         2.936899        -4.469901
H        6.107277         3.573391        -3.752293
H        7.706559         3.049221        -4.257178
S        6.408013         3.628767        -6.156607
C        4.722310         4.365198        -6.058764
H        3.996648         3.568743        -5.874503
H        4.697704         5.061719        -5.212733
C        4.413122         5.098680        -7.363301
H        5.136987         5.898270        -7.553327
H        4.430813         4.413577        -8.217652
H        3.415225         5.549974        -7.312329
 

