%Mem=61440MB 
%NProc=8 

#P B3LYP/6-31G(d) Integral=Ultrafine SCF(Conver=8,XQC,MaxConventionalCycles=64,MaxCycle=128) NoSymm Test 
   Pop=mk IOp(6/33=2) GFInput GFPrint 

 MEP step - Input generated by PyRED DVE-DMDS-OPLS 

0 1 
C       -2.197737         3.108999         7.569621
H       -2.729398         3.909163         7.044576
H       -2.931836         2.492375         8.100085
H       -1.530227         3.567174         8.306366
C       -1.403560         2.261855         6.589075
H       -0.877973         1.448031         7.114802
H       -2.079914         1.791683         5.857102
O       -0.458208         3.106786         5.942762
C        0.404070         2.445020         5.033610
H        0.677490         1.442458         5.396043
H        1.321078         3.043195         4.987201
C       -0.219867         2.332483         3.635491
H       -1.120756         1.711158         3.670717
H       -0.514152         3.329801         3.279037
O        0.668449         1.700974         2.715607
C        1.571743         2.596698         2.075753
H        2.139350         3.174104         2.822460
H        1.017859         3.309794         1.446042
C        2.567222         1.827071         1.217501
H        3.013201         1.019437         1.817287
H        3.369687         2.522427         0.940385
O        2.044899         1.327447        -0.000000
C        1.529043         0.000000         0.000000
H        1.917958        -0.557192         0.862775
H        1.895793        -0.490929        -0.908988
C        0.000000        -0.000000         0.000000
H       -0.366323         0.510674        -0.896499
H       -0.375837         0.541763         0.870081
S       -0.735865        -1.681451        -0.091798
C       -0.289441        -2.409985         1.540958
H       -0.656153        -3.438916         1.468805
H        0.796942        -2.464194         1.654291
C       -0.914967        -1.686780         2.733574
H       -1.997095        -1.585786         2.601374
H       -0.496795        -0.680077         2.825791
S       -0.544847        -2.473105         4.357398
C       -1.585848        -3.987026         4.293078
H       -1.196659        -4.622004         5.094490
H       -1.392912        -4.509334         3.347817
C       -3.096430        -3.794588         4.469901
H       -3.498005        -3.070754         3.752293
H       -3.588720        -4.751297         4.257178
S       -3.658553        -3.331009         6.156607
C       -3.734381        -1.493028         6.058764
H       -2.729162        -1.105134         5.874503
H       -4.374691        -1.217799         5.212733
C       -4.306061        -0.939154         7.363301
H       -5.313551        -1.324238         7.553327
H       -3.673889        -1.203802         8.217652
H       -4.365252         0.154446         7.312329
 

