%Mem=61440MB 
%NProc=8 

#P B3LYP/6-31G(d) Integral=Ultrafine SCF(Conver=8,XQC,MaxConventionalCycles=64,MaxCycle=128) NoSymm Test 
   Pop=mk IOp(6/33=2) GFInput GFPrint 

 MEP step - Input generated by PyRED DVE-DMDS-OPLS 

0 1 
C        2.604605        -7.101959        -0.566157
H        2.342063        -6.689198         0.413158
H        2.245621        -8.135880        -0.616349
H        3.695673        -7.105682        -0.654553
C        1.984444        -6.268949        -1.676326
H        2.240423        -6.687087        -2.665447
H        0.885683        -6.285415        -1.592522
O        2.486595        -4.945999        -1.566613
C        2.077009        -4.068509        -2.596908
H        2.149683        -4.559861        -3.582293
H        2.783797        -3.232080        -2.581465
C        0.666239        -3.515007        -2.431387
H        0.404046        -2.934485        -3.333307
H       -0.070660        -4.331130        -2.344917
O        0.625434        -2.693862        -1.279889
C       -0.657669        -2.156680        -1.020855
H       -1.384020        -2.970229        -0.842753
H       -1.019309        -1.569963        -1.881956
C       -0.605112        -1.264107         0.212290
H       -0.100187        -1.804986         1.028014
H       -1.633464        -1.051600         0.526974
O        0.000000        -0.000000         0.000000
C        1.426816        -0.000000        -0.000000
H        1.818218        -0.548884        -0.862937
H        1.791116        -0.503702         0.912319
C        1.919366         1.439822         0.000000
H        3.004147         1.439147         0.154767
H        1.475392         1.998389         0.830373
S        1.710160         2.379322        -1.563814
C       -0.109799         2.621655        -1.694286
H       -0.219973         3.257271        -2.579083
H       -0.583518         1.657578        -1.893641
C       -0.801759         3.260577        -0.492040
H       -0.773302         2.572021         0.356613
H       -1.854651         3.429648        -0.751113
S       -0.058818         4.885253        -0.038970
C       -1.437539         5.598640         0.943108
H       -2.369042         5.514201         0.371613
H       -1.205052         6.664602         1.031781
C       -1.589944         4.977184         2.331575
H       -1.785072         3.903469         2.251506
H       -0.668617         5.117766         2.906434
S       -2.985362         5.795992         3.216465
C       -2.807762         5.060384         4.892483
H       -1.782371         5.232223         5.239948
H       -3.465384         5.666980         5.524330
C       -3.183784         3.582427         4.994296
H       -2.529609         2.955573         4.379025
H       -3.090738         3.238451         6.032290
H       -4.215430         3.417293         4.668008
 

