%Mem=61440MB 
%NProc=8 

#P B3LYP/6-31G(d) Integral=Ultrafine SCF(Conver=8,XQC,MaxConventionalCycles=64,MaxCycle=128) NoSymm Test 
   Pop=mk IOp(6/33=2) GFInput GFPrint 

 MEP step - Input generated by PyRED DVE-DMDS-OPLS 

0 1 
C        1.400764         2.498439        -8.110096
H        0.919412         2.801128        -9.047419
H        1.134176         3.237850        -7.347114
H        2.486009         2.528868        -8.254300
C        0.954760         1.089398        -7.722738
H       -0.136349         1.061919        -7.565821
H        1.190420         0.387907        -8.530123
O        1.620161         0.572037        -6.577341
C        1.202044         1.125265        -5.344542
H        0.104071         1.098603        -5.250151
H        1.516720         2.175797        -5.243212
C        1.828231         0.273197        -4.239990
H        1.452819        -0.751639        -4.320686
H        2.919966         0.243330        -4.368299
O        1.476662         0.742633        -2.945331
C        2.326313         1.761043        -2.429780
H        2.314178         2.649762        -3.081577
H        3.365513         1.400613        -2.370896
C        1.843468         2.174114        -1.045700
H        0.764768         2.376863        -1.079692
H        2.347237         3.106855        -0.770494
O        2.169071         1.269919         0.000000
C        1.532375         0.000000        -0.000000
H        1.906999        -0.489523         0.905023
H        1.856069        -0.598593        -0.862283
C        0.000000         0.000000         0.000000
H       -0.332787        -1.035718         0.139329
H       -0.379288         0.328654        -0.972165
S       -0.855287         1.082904         1.215278
C       -0.080877         0.582094         2.811798
H       -0.880557         0.633146         3.556955
H        0.228674        -0.465542         2.746090
C        1.094228         1.478223         3.211480
H        0.763993         2.515797         3.321638
H        1.862519         1.475945         2.434272
S        1.944232         0.928236         4.750089
C        0.761868         1.462778         6.058269
H        1.063626         0.898692         6.946277
H       -0.252173         1.140411         5.804353
C        0.798760         2.966684         6.334069
H        1.812649         3.289256         6.588263
H        0.497283         3.530490         5.445839
S       -0.380519         3.504660         7.641001
C        0.460280         2.932114         9.175852
H       -0.310805         3.024061         9.948184
H        0.689057         1.864566         9.086411
C        1.702763         3.733414         9.562099
H        1.460339         4.792561         9.692751
H        2.119767         3.354918        10.503987
H        2.487019         3.658194         8.801254
 

