%Mem=61440MB 
%NProc=8 

#P B3LYP/6-31G(d) Integral=Ultrafine SCF(Conver=8,XQC,MaxConventionalCycles=64,MaxCycle=128) NoSymm Test 
   Pop=mk IOp(6/33=2) GFInput GFPrint 

 MEP step - Input generated by PyRED DVE-DMDS-OPLS 

0 1 
C       -3.446772        -4.788682         4.667824
H       -3.129277        -5.810927         4.438611
H       -2.579100        -4.237607         5.044406
H       -4.205733        -4.826212         5.457186
C       -4.004202        -4.114223         3.424533
H       -4.885027        -4.662643         3.046891
H       -4.339386        -3.092652         3.667077
O       -2.984847        -4.098800         2.438171
C       -3.382632        -3.584677         1.181660
H       -4.369496        -3.984234         0.891288
H       -2.642110        -3.943629         0.459350
C       -3.428566        -2.062593         1.107487
H       -3.873014        -1.767978         0.139844
H       -4.076704        -1.649433         1.899573
O       -2.114448        -1.559627         1.226568
C       -2.052991        -0.149740         1.207796
H       -2.583981         0.275867         2.077747
H       -2.525427         0.254933         0.297165
C       -0.600249         0.283563         1.252478
H       -0.086430        -0.259058         2.061169
H       -0.558315         1.360517         1.484219
O        0.000000         0.000000         0.000000
C        1.417010         0.000000         0.000000
H        1.709896        -0.528823        -0.912388
H        1.809465        -0.566885         0.857809
C        2.006071         1.416509         0.000000
H        1.764301         1.938198         0.931870
H        1.582401         2.002396        -0.823378
S        3.838958         1.449472        -0.097801
C        4.096497         1.073961        -1.886425
H        3.703320         0.083118        -2.128888
H        3.548960         1.814070        -2.480234
C        5.591901         1.125856        -2.197883
H        6.125011         0.352296        -1.636604
H        6.022037         2.089555        -1.906091
S        5.970653         0.794687        -3.966799
C        5.630743         2.438037        -4.729038
H        4.689644         2.830595        -4.331007
H        5.468446         2.237549        -5.791860
C        6.776520         3.435775        -4.551740
H        7.009009         3.597429        -3.494525
H        7.685040         3.049073        -5.022107
S        6.457113         5.059222        -5.358252
C        5.359817         5.881494        -4.128472
H        4.920975         6.719429        -4.680338
H        4.534983         5.206477        -3.874577
C        6.072114         6.381956        -2.872569
H        5.359076         6.884884        -2.207140
H        6.525757         5.560364        -2.307734
H        6.864896         7.091245        -3.129217
 

