%Mem=61440MB 
%NProc=8 

#P B3LYP/6-31G(d) Integral=Ultrafine SCF(Conver=8,XQC,MaxConventionalCycles=64,MaxCycle=128) NoSymm Test 
   Pop=mk IOp(6/33=2) GFInput GFPrint 

 MEP step - Input generated by PyRED DVE-DMDS-OPLS 

0 1 
C       -1.311661        -0.799815        -7.740306
H       -0.325551        -0.536429        -8.139357
H       -1.643116        -1.715641        -8.244017
H       -2.007198         0.007048        -7.992299
C       -1.269864        -1.008392        -6.228464
H       -2.264859        -1.276315        -5.857061
H       -0.592917        -1.837344        -5.970434
O       -0.904325         0.179346        -5.528183
C        0.495320         0.402223        -5.409293
H        0.631312         1.486708        -5.332745
H        1.028990         0.060059        -6.310248
C        1.120424        -0.256352        -4.178645
H        0.862036        -1.327587        -4.143206
H        2.211687        -0.178963        -4.261768
O        0.783478         0.375608        -2.954177
C       -0.507370         0.056270        -2.434638
H       -0.628000        -1.036894        -2.361541
H       -1.293103         0.439548        -3.098017
C       -0.662599         0.683536        -1.057037
H       -1.722285         0.650066        -0.782597
H       -0.364612         1.739772        -1.098237
O        0.000000         0.000000         0.000000
C        1.418782        -0.000000        -0.000000
H        1.810780        -0.556710        -0.862206
H        1.690439        -0.554288         0.904666
C        2.105404         1.370064         0.000000
H        1.974182         1.859721        -0.969502
H        3.181425         1.204124         0.132659
S        1.526891         2.615017         1.223934
C        1.616406         1.685828         2.814154
H        2.408430         0.933797         2.745749
H        1.934296         2.414791         3.566040
C        0.282742         1.044559         3.206517
H       -0.057821         0.357555         2.427982
H       -0.493633         1.809162         3.310261
S        0.380282         0.048281         4.752743
C        0.362641         1.357323         6.049917
H        1.053692         2.157280         5.766382
H        0.772779         0.885309         6.947265
C       -1.037222         1.902227         6.338314
H       -1.501233         2.314478         5.436964
H       -1.686970         1.095888         6.690364
S       -1.066354         3.172237         7.671162
C       -0.489874         4.674285         6.774810
H       -0.227571         5.377454         7.572359
H        0.439636         4.441440         6.243604
C       -1.523950         5.292843         5.834878
H       -1.807460         4.603285         5.032422
H       -2.432942         5.566462         6.379343
H       -1.116431         6.196603         5.364328
 

