%Mem=61440MB 
%NProc=8 

#P B3LYP/6-31G(d) Integral=Ultrafine SCF(Conver=8,XQC,MaxConventionalCycles=64,MaxCycle=128) NoSymm Test 
   Pop=mk IOp(6/33=2) GFInput GFPrint 

 MEP step - Input generated by PyRED DVE-DMDS-OPLS 

0 1 
C        7.860165        -3.413119         0.566157
H        7.554602        -3.031110        -0.413158
H        8.954622        -3.408115         0.616349
H        7.510535        -4.446658         0.654553
C        7.272728        -2.556717         1.676326
H        7.585503        -2.934258         2.665447
H        7.643950        -1.522434         1.592522
O        5.858461        -2.603629         1.566613
C        5.160782        -1.932070         2.596908
H        5.602160        -2.159871         3.582293
H        4.140609        -2.330079         2.581465
C        5.093708        -0.418090         2.431387
H        4.629302         0.017891         3.333307
H        6.104413         0.014982         2.344917
O        4.329974        -0.113696         1.279889
C        4.237019         1.274208         1.020855
H        5.241876         1.698132         0.842753
H        3.798941         1.806286         1.881956
C        3.375484         1.513384        -0.212290
H        3.723814         0.860570        -1.028014
H        3.507270         2.555162        -0.526974
O        1.983566         1.350008         0.000000
C        1.521740        -0.000000        -0.000000
H        1.914389        -0.547993         0.862937
H        1.880412        -0.507725        -0.912319
C        0.000000         0.000000         0.000000
H       -0.350479        -1.026603        -0.154767
H       -0.384795         0.600869        -0.830373
S       -0.821210         0.502038         1.563814
C       -0.461421         2.302462         1.694286
H       -1.027160         2.612439         2.579083
H        0.604089         2.438631         1.893641
C       -0.841978         3.163976         0.492040
H       -0.199699         2.914182        -0.356613
H       -0.661151         4.214914         0.751113
S       -2.619667         2.986898         0.038970
C       -2.848391         4.522306        -0.943108
H       -2.466993         5.376333        -0.371613
H       -3.932221         4.647360        -1.031781
C       -2.211060         4.465357        -2.331575
H       -1.131987         4.302444        -2.251506
H       -2.642285         3.639129        -2.906434
S       -2.534127         6.050685        -3.216465
C       -1.895603         5.644546        -4.892483
H       -2.390086         4.729975        -5.239948
H       -2.256689         6.463108        -5.524330
C       -0.375498         5.521947        -4.994296
H        0.005870         4.700090        -4.379025
H       -0.080155         5.322574        -6.032290
H        0.114666         6.444607        -4.668008
 

