%Mem=61440MB 
%NProc=8 

#P B3LYP/6-31G(d) Integral=Ultrafine SCF(Conver=8,XQC,MaxConventionalCycles=64,MaxCycle=128) NoSymm Test 
   Pop=mk IOp(6/33=2) GFInput GFPrint 

 MEP step - Input generated by PyRED DVE-DMDS-OPLS 

0 1 
C       -5.135168        -3.515016        -0.360920
H       -5.645932        -2.848080        -1.062899
H       -4.081508        -3.576843        -0.651760
H       -5.577943        -4.513579        -0.444628
C       -5.266892        -2.994288         1.060689
H       -6.328182        -2.946114         1.359944
H       -4.760806        -3.669497         1.771395
O       -4.688585        -1.699857         1.122877
C       -4.768251        -1.113397         2.408618
H       -4.276994        -1.751908         3.161535
H       -5.824900        -0.993717         2.709993
C       -4.099120         0.254881         2.397611
H       -4.485332         0.841011         1.548700
H       -4.369189         0.775776         3.323859
O       -2.684081         0.213346         2.378901
C       -2.097164        -0.002587         1.102816
H       -2.488901         0.717389         0.367054
H       -2.304741        -1.010160         0.725899
C       -0.598018         0.200673         1.270651
H       -0.204224        -0.520057         2.005189
H       -0.409369         1.211723         1.661790
O        0.000000        -0.000000         0.000000
C        1.417721        -0.000000        -0.000000
H        1.724798        -0.515595        -0.915140
H        1.801096        -0.577198         0.855999
C        2.000819         1.418458         0.000000
H        1.697139         1.982467         0.888375
H        1.630683         1.962025        -0.874969
S        3.831448         1.457262        -0.129784
C        4.309378         1.055419         1.604209
H        3.822101         1.764923         2.281262
H        3.975586         0.045427         1.860754
C        5.828246         1.156399         1.734982
H        6.161460         2.173646         1.502626
H        6.311400         0.464896         1.037524
S        6.312401         0.747711         3.464406
C        8.117556         1.103212         3.407326
H        8.428682         1.177285         4.453358
H        8.265160         2.089878         2.955290
C        8.938316         0.028370         2.692575
H        8.812186        -0.934636         3.195639
H        8.611288        -0.105993         1.656971
S       10.748374         0.360221         2.718496
C       10.924317         1.617616         1.384125
H       10.212255         2.431365         1.559929
H       11.923931         2.035650         1.543267
C       10.795384         1.065113        -0.034766
H        9.804631         0.633960        -0.214921
H       10.944293         1.867080        -0.768853
H       11.539969         0.284863        -0.219878
 

