%Mem=61440MB 
%NProc=8 

#P B3LYP/6-31G(d) Integral=Ultrafine SCF(Conver=8,XQC,MaxConventionalCycles=64,MaxCycle=128) NoSymm Test 
   Pop=mk IOp(6/33=2) GFInput GFPrint 

 MEP step - Input generated by PyRED DVE-DMDS-OPLS 

0 1 
C        7.276131         4.724341         0.360920
H        6.853476         5.450322         1.062899
H        6.932706         3.726302         0.651760
H        8.368049         4.754204         0.444628
C        6.844591         5.044158        -1.060689
H        7.203545         6.044062        -1.359944
H        7.276675         4.319358        -1.771395
O        5.427493         5.001433        -1.122877
C        4.915366         5.298092        -2.408618
H        5.319146         4.600961        -3.161535
H        5.206419         6.320891        -2.709993
C        3.395435         5.199441        -2.397611
H        3.000163         5.779500        -1.548700
H        3.016341         5.647277        -3.323859
O        2.895843         3.874878        -2.378901
C        2.872410         3.249938        -1.102816
H        2.355444         3.885996        -0.367054
H        3.883237         3.058840        -0.725899
C        2.114428         1.940657        -1.270651
H        2.631308         1.302409        -2.005189
H        1.107581         2.150584        -1.661790
O        2.072660         1.311252         0.000000
C        1.533632         0.000000        -0.000000
H        1.893753        -0.480049         0.915140
H        1.921721        -0.574038        -0.855999
C        0.000000        -0.000000         0.000000
H       -0.406191         0.495315        -0.888375
H       -0.362018         0.549008         0.874969
S       -0.731909        -1.678398         0.129784
C       -0.541955        -2.273219        -1.604209
H       -1.012911        -1.552778        -2.281262
H        0.519097        -2.348501        -1.860754
C       -1.212837        -3.639629        -1.734982
H       -2.280380        -3.561054        -1.502626
H       -0.756964        -4.349413        -1.037524
S       -1.018920        -4.242810        -3.464406
C       -2.034056        -5.777237        -3.407326
H       -2.220859        -6.036835        -4.453358
H       -3.002745        -5.538618        -2.955290
C       -1.351992        -6.945021        -2.692575
H       -0.413352        -7.194506        -3.195639
H       -1.103381        -6.693639        -1.656971
S       -2.347119        -8.492974        -2.718496
C       -3.576980        -8.177634        -1.384125
H       -4.058886        -7.209654        -1.559929
H       -4.343681        -8.943239        -1.543267
C       -3.016948        -8.268449         0.034766
H       -2.241482        -7.516028         0.214921
H       -3.815304        -8.101261         0.768853
H       -2.578390        -9.253773         0.219878
 

