%Mem=61440MB 
%NProc=8 

#P B3LYP/6-31G(d) Integral=Ultrafine SCF(Conver=8,XQC,MaxConventionalCycles=64,MaxCycle=128) NoSymm Test 
   Pop=mk IOp(6/33=2) GFInput GFPrint 

 MEP step - Input generated by PyRED DVE-DMDS-OPLS 

0 1 
C        2.344048        -1.963139         5.097354
H        1.607067        -2.763394         5.230602
H        2.802206        -1.767628         6.074420
H        1.815339        -1.059547         4.775939
C        3.416840        -2.344268         4.078288
H        4.163640        -1.546047         4.008301
H        3.942467        -3.257223         4.402554
O        2.926268        -2.508625         2.753980
C        2.219885        -3.713442         2.496468
H        2.329797        -4.424685         3.328424
H        2.658569        -4.171888         1.600753
C        0.739304        -3.470213         2.238724
H        0.217093        -4.440286         2.150805
H        0.290997        -2.923897         3.083613
O        0.616486        -2.724342         1.045507
C       -0.683708        -2.224084         0.795997
H       -1.082759        -1.719190         1.690757
H       -1.376129        -3.044580         0.534661
C       -0.616788        -1.227333        -0.352505
H       -1.636713        -0.974508        -0.663144
H       -0.102261        -1.687399        -1.209403
O        0.000000         0.000000         0.000000
C        1.424276         0.000000         0.000000
H        1.799900        -0.530053        -0.887655
H        1.809910        -0.522671         0.885176
C        1.927281         1.437762         0.000000
H        3.009902         1.422944         0.165959
H        1.478650         1.998506         0.827429
S        1.666740         2.377298        -1.565799
C        0.218488         3.437232        -1.172499
H        0.389804         3.897211        -0.190336
H        0.259247         4.237307        -1.918221
C       -1.149923         2.751158        -1.181551
H       -1.917089         3.452345        -0.828294
H       -1.131215         1.895586        -0.504090
S       -1.692398         2.100375        -2.819245
C       -2.915236         3.373691        -3.342183
H       -3.628753         3.537478        -2.527309
H       -3.468094         2.912125        -4.165996
C       -2.294349         4.690075        -3.811561
H       -1.710911         5.164672        -3.016382
H       -1.609770         4.505444        -4.644580
S       -3.528765         5.896200        -4.455411
C       -4.263935         6.557294        -2.901962
H       -5.169106         7.075874        -3.235341
H       -4.593679         5.721551        -2.275075
C       -3.359541         7.510789        -2.121808
H       -3.069752         8.367301        -2.738203
H       -3.880430         7.885467        -1.231379
H       -2.442902         7.015410        -1.783449
 

