%Mem=61440MB 
%NProc=8 

#P B3LYP/6-31G(d) Integral=Ultrafine SCF(Conver=8,XQC,MaxConventionalCycles=64,MaxCycle=128) NoSymm Test 
   Pop=mk IOp(6/33=2) GFInput GFPrint 

 MEP step - Input generated by PyRED DVE-DMDS-OPLS 

0 1 
C       -6.917011        -0.731979        -2.715669
H       -7.285962        -1.748568        -2.541527
H       -7.335173        -0.077851        -1.943212
H       -7.298054        -0.403371        -3.689708
C       -5.390495        -0.664987        -2.699945
H       -4.968647        -1.331560        -3.470214
H       -5.059609         0.353792        -2.927636
O       -4.818764        -0.967393        -1.432694
C       -4.826869        -2.342822        -1.090783
H       -4.395763        -2.946901        -1.906180
H       -5.853686        -2.703734        -0.911278
C       -4.010929        -2.557649         0.177475
H       -4.348463        -1.849969         0.951037
H       -4.202444        -3.575124         0.538985
O       -2.610081        -2.471269        -0.007828
C       -2.072828        -1.155791        -0.008116
H       -2.401198        -0.600787         0.884787
H       -2.391728        -0.588166        -0.889322
C       -0.558124        -1.302368         0.006753
H       -0.230576        -1.875886        -0.875564
H       -0.244179        -1.862449         0.902095
O        0.000000        -0.000000         0.000000
C        1.414937         0.000000        -0.000000
H        1.800079        -0.530088        -0.887316
H        1.809416        -0.520322         0.887393
C        1.873983         1.454412        -0.000000
H        1.533336         1.950656         0.913624
H        1.429091         1.991203        -0.843675
S        3.700225         1.634585        -0.024111
C        4.069701         1.417577        -1.816923
H        5.133063         1.162633        -1.850797
H        3.518024         0.558335        -2.209439
C        3.785947         2.672210        -2.643986
H        4.374091         3.519512        -2.277197
H        2.731234         2.953559        -2.561507
S        4.058779         2.482653        -4.454905
C        5.899289         2.521833        -4.591075
H        6.288896         3.120917        -3.761567
H        6.121446         3.065675        -5.513572
C        6.548621         1.136482        -4.642939
H        6.340376         0.559948        -3.735660
H        6.143236         0.566391        -5.484229
S        8.365373         1.182721        -4.920821
C        8.964682         1.701725        -3.259206
H        8.585054         2.701916        -3.025084
H        8.569495         1.003401        -2.512257
C       10.493076         1.700254        -3.237159
H       10.891197         0.702987        -3.451060
H       10.901054         2.395977        -3.978004
H       10.854781         2.007383        -2.249390
 

