%Mem=61440MB 
%NProc=8 

#P B3LYP/6-31G(d) Integral=Ultrafine SCF(Conver=8,XQC,MaxConventionalCycles=64,MaxCycle=128) NoSymm Test 
   Pop=mk IOp(6/33=2) GFInput GFPrint 

 MEP step - Input generated by PyRED DVE-DMDS-OPLS 

0 1 
C        2.842737        -5.750074         0.850543
H        2.248145        -6.654090         0.680606
H        3.487053        -5.593768        -0.021049
H        3.480733        -5.932206         1.723199
C        1.965524        -4.522677         1.090427
H        1.310683        -4.680334         1.962712
H        2.593636        -3.651026         1.303098
O        1.183538        -4.152950        -0.041601
C        0.043905        -4.966819        -0.265359
H       -0.592296        -4.993511         0.634339
H        0.333275        -6.003122        -0.506187
C       -0.754357        -4.405768        -1.434561
H       -0.093444        -4.301973        -2.308272
H       -1.539351        -5.127749        -1.689971
O       -1.420736        -3.188541        -1.154296
C       -0.656516        -1.991867        -1.279206
H       -1.158187        -1.331312        -1.999516
H        0.350132        -2.208521        -1.652706
C       -0.592204        -1.291257         0.080905
H       -0.053530        -1.926794         0.796552
H       -1.611666        -1.141393         0.450635
O        0.000000         0.000000        -0.000000
C        1.420929        -0.000000        -0.000000
H        1.812178        -0.508628        -0.896885
H        1.801582        -0.537694         0.882044
C        1.920538         1.437837        -0.000000
H        1.490263         1.993099        -0.839657
H        3.007138         1.433327        -0.141293
S        1.689288         2.386625         1.553415
C       -0.129884         2.656868         1.647814
H       -0.618565         1.711121         1.893266
H       -0.240526         3.338278         2.497894
C       -0.804832         3.240290         0.408610
H       -1.855864         3.428543         0.659936
H       -0.784189         2.509440        -0.405429
S       -0.031195         4.818014        -0.143701
C       -1.322066         5.363740        -1.331226
H       -1.637445         4.494741        -1.923494
H       -0.816739         6.048015        -2.020073
C       -2.552714         6.038873        -0.712646
H       -3.348177         6.117986        -1.463880
H       -2.954261         5.434046         0.106388
S       -2.256063         7.699873         0.012404
C       -2.251826         8.752447        -1.497543
H       -1.800968         9.693934        -1.166361
H       -1.564823         8.319664        -2.233876
C       -3.629175         9.006515        -2.109614
H       -4.104248         8.076719        -2.441435
H       -4.296492         9.483943        -1.385460
H       -3.541734         9.663107        -2.984797
 

