%chk=PET_033_gaussian.chk
%nproc=4
%mem=4000Mb
#p 6-31g* mp2

Conformer number 033. Energy MM = 72.014 kcal/mol

0 1
C  -0.8303    -2.0179    -2.0791
C  -3.7336    0.0129    -0.7715
H  -4.6698    0.3974    -1.1694
C  -2.8978    -0.7293    -1.6137
H  -3.1986    -0.9043    -2.6456
C  -1.6820    -1.2400    -1.1387
C  -1.3072    -0.9964    0.1891
H  -0.3635    -1.3688    0.5804
C  -2.1424    -0.2541    1.0312
H  -1.8354    -0.0709    2.0599
C  -3.3599    0.2546    0.5572
O  -3.8969    1.2566    2.6580
C  -4.2072    1.0387    1.4977
O  -5.3425    1.4538    0.8833
O  0.2472    -2.5342    -1.4358
O  -1.0920    -2.1694    -3.2623
C  -6.2430    2.2259    1.6913
H  -5.6986    2.8956    2.3670
H  -6.8220    2.8579    1.0100
C  -7.1788    1.3074    2.4543
H  -7.9081    1.8862    3.0280
H  -7.7152    0.6467    1.7652
H  -6.6226    0.6644    3.1437
C  6.3754    1.6644    2.2727
C  4.7843    -0.5804    -0.3059
H  5.0390    -1.5098    -0.8098
C  5.6839    -0.0511    0.6263
H  6.6161    -0.5762    0.8293
C  5.3897    1.1449    1.2937
C  4.1882    1.8102    1.0226
H  3.9404    2.7404    1.5293
C  3.2889    1.2811    0.0906
H  2.3581    1.8097    -0.1108
C  3.5804    0.0836    -0.5788
O  1.5438    0.1478    -1.8191
C  2.5842    -0.4336    -1.5569
O  2.9985    -1.6142    -2.0788
O  5.9836    2.8151    2.8464
O  7.4361    1.1414    2.5593
C  2.1006    -2.2482    -3.0124
H  2.7288    -2.8007    -3.7186
H  1.5410    -1.5012    -3.5856
C  1.1853    -3.2265    -2.2766
H  1.7793    -3.8646    -1.6136
H  0.6576    -3.8818    -2.9791
H  6.7168    3.0369    3.4583

