%chk=PET_040_gaussian.chk
%nproc=4
%mem=4000Mb
#p 6-31g* mp2

Conformer number 040. Energy MM = 72.593 kcal/mol

0 1
C  -1.1255    -0.6737    -1.0405
C  -4.8633    -0.4751    -1.5298
H  -5.5579    -0.4484    -2.3683
C  -3.4895    -0.5545    -1.7805
H  -3.1368    -0.5885    -2.8104
C  -2.5765    -0.5901    -0.7181
C  -3.0541    -0.5457    0.5990
H  -2.3691    -0.5722    1.4439
C  -4.4296    -0.4662    0.8499
H  -4.7725    -0.4330    1.8817
C  -5.3424    -0.4305    -0.2135
O  -7.6215    -0.3080    -0.9179
C  -6.8142    -0.3457    -0.0034
O  -7.1048    -0.3144    1.3207
O  -0.3838    -0.6921    0.0937
O  -0.6880    -0.7110    -2.1791
C  -8.4994    -0.2347    1.6515
H  -8.6174    -0.6750    2.6470
H  -9.1078    -0.8308    0.9617
C  -8.9481    1.2143    1.6781
H  -9.9945    1.2907    1.9868
H  -8.8398    1.6774    0.6922
H  -8.3315    1.7949    2.3721
C  9.4783    0.1267    -0.5725
C  5.7485    0.3148    -1.0951
H  5.0692    0.3361    -1.9445
C  7.1250    0.2376    -1.3353
H  7.4884    0.2004    -2.3613
C  8.0294    0.2087    -0.2660
C  7.5482    0.2576    1.0478
H  8.2335    0.2367    1.8923
C  6.1721    0.3347    1.2880
H  5.8120    0.3725    2.3152
C  5.2644    0.3637    0.2195
O  3.3690    0.4853    1.6709
C  3.8117    0.4453    0.5343
O  3.0751    0.4587    -0.6032
O  10.2444    0.1053    0.5319
O  9.9687    0.0812    -1.6852
C  1.6545    0.5621    -0.4185
H  1.4090    1.3027    0.3531
H  1.2388    0.9592    -1.3505
C  1.0359    -0.7965    -0.0979
H  1.4553    -1.1960    0.8314
H  1.2771    -1.5358    -0.8721
H  11.1593    0.0510    0.1835

