%chk=PET_041_gaussian.chk
%nproc=4
%mem=4000Mb
#p 6-31g* mp2

Conformer number 041. Energy MM = 74.378 kcal/mol

0 1
C  -1.0588    1.1989    0.1929
C  -4.7801    1.7257    -0.1606
H  -5.4422    2.4842    -0.5759
C  -3.3956    1.9122    -0.2314
H  -3.0023    2.8134    -0.7001
C  -2.5231    0.9506    0.2957
C  -3.0524    -0.2001    0.8964
H  -2.3999    -0.9622    1.3164
C  -4.4386    -0.3866    0.9674
H  -4.8222    -1.2886    1.4392
C  -5.3106    0.5755    0.4390
O  -7.5644    1.2497    0.0235
C  -6.7915    0.4267    0.4871
O  -7.1334    -0.7317    1.1037
O  -0.3603    0.1635    0.7188
O  -0.5804    2.2008    -0.3114
C  -8.5418    -0.9868    1.2144
H  -9.1002    -0.0645    1.4119
H  -8.6811    -1.6391    2.0826
C  -9.0460    -1.6852    -0.0345
H  -8.4791    -2.6041    -0.2165
H  -8.9177    -1.0517    -0.9179
H  -10.1057    -1.9375    0.0633
C  9.4554    -0.8171    -0.3490
C  6.3158    1.2578    -0.1471
H  6.0554    2.2993    0.0369
C  7.6611    0.8758    -0.1354
H  8.4288    1.6234    0.0578
C  8.0165    -0.4578    -0.3713
C  7.0163    -1.4064    -0.6194
H  7.2733    -2.4470    -0.8061
C  5.6696    -1.0241    -0.6311
H  4.9130    -1.7800    -0.8282
C  5.3119    0.3108    -0.3942
O  3.5668    1.9306    -0.2039
C  3.8963    0.7721    -0.3943
O  3.0549    -0.2662    -0.6187
O  9.6703    -2.1222    -0.5905
O  10.3778    -0.0518    -0.1396
C  1.6565    0.0642    -0.6797
H  1.1504    -0.7869    -1.1492
H  1.4945    0.9179    -1.3483
C  1.0708    0.3067    0.7109
H  1.4670    -0.4365    1.4121
H  1.3591    1.2849    1.1133
H  10.6458    -2.2111    -0.5466

