%chk=PET_026_gaussian.chk
%nproc=4
%mem=4000Mb
#p 6-31g* mp2

Conformer number 026. Energy MM = 72.877 kcal/mol

0 1
C  -0.9341    -2.1187    -1.8200
C  -2.7982    0.8316    -0.2922
H  -2.6829    1.9099    -0.1891
C  -1.8167    0.0990    -0.9693
H  -0.9576    0.6265    -1.3775
C  -1.9471    -1.2888    -1.1121
C  -3.0680    -1.9325    -0.5693
H  -3.1826    -3.0110    -0.6706
C  -4.0494    -1.1997    0.1079
H  -4.9073    -1.7275    0.5184
C  -3.9197    0.1882    0.2501
O  -4.8277    2.2274    1.0982
C  -4.9306    1.0189    0.9609
O  -5.9462    0.2460    1.4181
O  0.0679    -1.3423    -2.2983
O  -1.0195    -3.3301    -1.9402
C  -6.9886    0.9372    2.1225
H  -7.8987    0.3380    2.0151
H  -7.1926    1.9159    1.6732
C  -6.6315    1.0637    3.5915
H  -6.4320    0.0782    4.0249
H  -5.7234    1.6600    3.7251
H  -7.4449    1.5366    4.1491
C  6.1624    1.9521    2.5356
C  3.8814    1.0485    -0.3685
H  3.0536    1.4928    -0.9164
C  4.4559    1.7691    0.6852
H  4.0627    2.7534    0.9305
C  5.5228    1.2254    1.4117
C  6.0113    -0.0435    1.0776
H  6.8400    -0.4777    1.6348
C  5.4374    -0.7635    0.0249
H  5.8280    -1.7497    -0.2222
C  4.3697    -0.2222    -0.7046
O  4.1946    -2.1445    -2.1155
C  3.7944    -1.0319    -1.8133
O  2.7803    -0.3652    -2.4168
O  5.6066    3.1552    2.7614
O  7.0907    1.5467    3.2097
C  2.1356    -1.0671    -3.4970
H  2.8807    -1.5553    -4.1356
H  1.6322    -0.3035    -4.0996
C  1.1129    -2.0695    -2.9688
H  1.5741    -2.7605    -2.2553
H  0.6846    -2.6286    -3.8081
H  6.1194    3.5130    3.5167

