%chk=PET_014_gaussian.chk
%nproc=4
%mem=4000Mb
#p 6-31g* mp2

Conformer number 014. Energy MM = 72.118 kcal/mol

0 1
C  -1.0401    0.5621    0.5519
C  -4.8023    0.8583    0.4002
H  -5.5262    1.6613    0.2802
C  -3.4389    1.1744    0.4038
H  -3.1325    2.2131    0.2871
C  -2.4754    0.1674    0.5564
C  -2.8905    -1.1624    0.7059
H  -2.1675    -1.9662    0.8269
C  -4.2540    -1.4783    0.7022
H  -4.5610    -2.5169    0.8196
C  -5.2177    -0.4715    0.5495
O  -7.0341    -2.0187    0.6821
C  -6.6533    -0.8661    0.5533
O  -7.4482    0.2209    0.3961
O  -0.2441    -0.5239    0.7046
O  -0.6580    1.7136    0.4190
C  -8.8506    -0.0734    0.3888
H  -9.1362    -0.5370    1.3397
H  -9.0814    -0.7540    -0.4385
C  -9.6055    1.2288    0.2066
H  -9.3146    1.7151    -0.7304
H  -9.3684    1.9281    1.0152
H  -10.6852    1.0556    0.1945
C  9.5704    0.4374    -0.4575
C  6.3494    -1.5144    -0.3189
H  6.0488    -2.5542    -0.1984
C  7.7098    -1.1900    -0.3145
H  8.4489    -1.9800    -0.1907
C  8.1171    0.1407    -0.4685
C  7.1536    1.1448    -0.6270
H  7.4507    2.1844    -0.7482
C  5.7918    0.8202    -0.6314
H  5.0642    1.6191    -0.7567
C  5.3823    -0.5119    -0.4772
O  3.5698    -2.0644    -0.3380
C  3.9484    -0.9122    -0.4735
O  3.1487    0.1707    -0.6299
O  9.8362    1.7459    -0.6141
O  10.4629    -0.3788    -0.3243
C  1.7390    -0.1022    -0.6662
H  1.2635    0.7397    -1.1804
H  1.5226    -0.9842    -1.2821
C  1.1667    -0.2563    0.7410
H  1.6393    -1.1006    1.2538
H  1.3863    0.6241    1.3580
H  10.8153    1.7920    -0.5874

