%chk=IsoP_rdkit_03_079_gaussian.chk
%nproc=6
%mem=4000Mb
#p opt=loose m062x/6-31g(d,p)

Conformer number 079. Energy MM = 23.242 kcal/mol

0 1
C  -0.8398    0.8584    0.2227
H  -0.7555    0.3873    1.2094
H  -0.7952    1.9377    0.4214
C  -2.1746    0.5283    -0.4129
C  -2.7015    1.5681    -1.3683
H  -2.8301    2.5259    -0.8537
H  -3.6714    1.2879    -1.7927
H  -2.0056    1.7104    -2.2010
C  -2.8849    -0.5877    -0.1549
H  -3.8471    -0.7192    -0.6492
C  -2.5020    -1.7245    0.7392
H  -2.5933    -2.6669    0.1896
H  -3.1777    -1.7649    1.5989
H  -1.4760    -1.6619    1.1085
C  2.2822    -1.5213    0.8215
H  3.0114    -2.1037    0.2490
H  2.3996    -1.7693    1.8820
H  1.2830    -1.8516    0.5292
C  2.5126    -0.0507    0.6073
C  3.8132    0.4611    1.1693
H  3.8497    0.2978    2.2514
H  3.9511    1.5326    0.9900
H  4.6568    -0.0637    0.7089
C  1.6574    0.7841    -0.0151
H  1.9253    1.8378    -0.0939
C  0.3409    0.4384    -0.6586
H  0.2778    -0.6284    -0.8967
H  0.2936    0.9583    -1.6239

