%chk=IsoP_rdkit_03_408_gaussian.chk
%nproc=6
%mem=4000Mb
#p opt=loose m062x/6-31g(d,p)

Conformer number 408. Energy MM = 23.959 kcal/mol

0 1
C  -1.1213    -1.2193    -0.6162
H  -1.9876    -1.8427    -0.3606
H  -0.8582    -1.5165    -1.6400
C  -1.5353    0.2393    -0.5984
C  -0.9516    1.0904    -1.6969
H  -1.3067    2.1255    -1.6514
H  -1.2330    0.6893    -2.6762
H  0.1396    1.1157    -1.6327
C  -2.3929    0.7724    0.2948
H  -2.6418    1.8299    0.2111
C  -3.0631    0.0792    1.4383
H  -2.7648    -0.9657    1.5495
H  -2.8199    0.5951    2.3726
H  -4.1487    0.1104    1.3041
C  3.4629    0.2686    -0.1623
H  4.2480    0.1435    0.5906
H  3.4686    1.3094    -0.5024
H  3.7214    -0.3622    -1.0193
C  2.1198    -0.0821    0.4227
C  1.7243    0.7578    1.6058
H  2.4090    0.5765    2.4408
H  1.7738    1.8204    1.3444
H  0.7092    0.5657    1.9591
C  1.3704    -1.0622    -0.1192
H  1.7603    -1.5887    -0.9904
C  0.0275    -1.5630    0.3433
H  0.1006    -2.6566    0.4086
H  -0.2102    -1.2300    1.3578

