%chk=IsoP_rdkit_03_038_gaussian.chk
%nproc=6
%mem=4000Mb
#p opt=loose m062x/6-31g(d,p)

Conformer number 038. Energy MM = 24.629 kcal/mol

0 1
C  -0.9700    1.1717    -1.0217
H  -1.6522    2.0313    -1.0729
H  -0.7931    0.8842    -2.0661
C  -1.6596    0.0322    -0.2894
C  -1.0765    -1.3380    -0.5078
H  -0.2482    -1.5183    0.1824
H  -1.8146    -2.1333    -0.3713
H  -0.7048    -1.4410    -1.5330
C  -2.7535    0.2722    0.4618
H  -3.1205    1.2954    0.5360
C  -3.5451    -0.7130    1.2622
H  -4.5375    -0.8405    0.8195
H  -3.0698    -1.6933    1.3390
H  -3.6733    -0.3343    2.2815
C  3.4644    -0.7117    -0.2725
H  3.3315    -1.7677    -0.0152
H  4.3886    -0.3531    0.1925
H  3.5926    -0.6482    -1.3582
C  2.2889    0.0958    0.2142
C  2.0799    0.0403    1.7025
H  1.9942    -1.0015    2.0301
H  1.1769    0.5537    2.0377
H  2.9324    0.4940    2.2185
C  1.5212    0.7801    -0.6566
H  1.7786    0.7329    -1.7151
C  0.3310    1.6554    -0.3620
H  0.5656    2.6483    -0.7680
H  0.1726    1.8063    0.7094

