%chk=IsoP_rdkit_03_078_gaussian.chk
%nproc=6
%mem=4000Mb
#p opt=loose m062x/6-31g(d,p)

Conformer number 078. Energy MM = 23.287 kcal/mol

0 1
C  -0.8302    0.1760    0.6298
H  -0.3509    0.9710    1.2168
H  -1.1070    -0.5886    1.3655
C  -2.0637    0.7390    -0.0456
C  -1.9310    2.1595    -0.5325
H  -2.8501    2.5242    -1.0032
H  -1.7005    2.8274    0.3040
H  -1.1281    2.2377    -1.2722
C  -3.2223    0.0679    -0.1992
H  -4.0584    0.5752    -0.6801
C  -3.5181    -1.3431    0.1999
H  -4.2612    -1.3541    1.0030
H  -2.6372    -1.8943    0.5361
H  -3.9339    -1.8844    -0.6561
C  3.7151    -1.1746    1.1156
H  3.3928    -2.1508    1.4930
H  4.5521    -1.3435    0.4301
H  4.0756    -0.5909    1.9689
C  2.6056    -0.4387    0.4106
C  3.0033    0.9053    -0.1344
H  3.4662    1.5085    0.6542
H  3.7290    0.7830    -0.9449
H  2.1608    1.4837    -0.5202
C  1.3752    -0.9794    0.3151
H  1.2006    -1.9562    0.7668
C  0.1687    -0.4033    -0.3771
H  -0.3068    -1.2094    -0.9508
H  0.4543    0.3526    -1.1155

