%chk=IsoP_rdkit_03_263_gaussian.chk
%nproc=6
%mem=4000Mb
#p opt=loose m062x/6-31g(d,p)

Conformer number 263. Energy MM = 23.759 kcal/mol

0 1
C  -0.5919    -0.0761    -0.6847
H  -0.2264    0.9525    -0.8068
H  -0.5956    -0.5107    -1.6930
C  -2.0135    -0.0663    -0.1478
C  -2.7389    -1.3825    -0.2342
H  -2.6034    -1.8245    -1.2273
H  -3.8165    -1.2918    -0.0799
H  -2.3493    -2.0827    0.5111
C  -2.5488    1.0749    0.3302
H  -1.9365    1.9767    0.3223
C  -3.9112    1.2820    0.9118
H  -3.8203    1.7837    1.8808
H  -4.4626    0.3548    1.0785
H  -4.5030    1.9234    0.2518
C  4.1745    -0.2123    -0.5362
H  4.9202    -0.5237    0.2026
H  4.4831    0.7494    -0.9590
H  4.1819    -0.9492    -1.3462
C  2.8203    -0.0876    0.1120
C  2.7633    0.9074    1.2383
H  3.1549    1.8746    0.9051
H  3.3732    0.5600    2.0784
H  1.7513    1.0875    1.6079
C  1.7786    -0.8208    -0.3271
H  1.9384    -1.4981    -1.1663
C  0.3760    -0.8472    0.2202
H  0.3332    -0.4555    1.2416
H  0.0691    -1.8980    0.2934

