%chk=IsoP_rdkit_03_009_gaussian.chk
%nproc=6
%mem=4000Mb
#p opt=loose m062x/6-31g(d,p)

Conformer number 009. Energy MM = 23.486 kcal/mol

0 1
C  -1.2178    -0.6168    1.0480
H  -0.9201    -1.4849    0.4497
H  -1.8272    -1.0357    1.8600
C  -2.0908    0.3327    0.2484
C  -2.9512    1.2566    1.0734
H  -2.3296    1.9230    1.6791
H  -3.5988    1.8850    0.4527
H  -3.5973    0.6782    1.7418
C  -2.1559    0.3674    -1.0978
H  -2.8364    1.0777    -1.5666
C  -1.3768    -0.4523    -2.0775
H  -2.0572    -1.0930    -2.6468
H  -0.6170    -1.0860    -1.6164
H  -0.8653    0.2113    -2.7821
C  2.6944    -1.4008    0.8256
H  1.9791    -1.9081    1.4768
H  2.9205    -2.0909    0.0055
H  3.6126    -1.2338    1.3980
C  2.1834    -0.0978    0.2769
C  3.0750    0.5293    -0.7629
H  4.0654    0.7293    -0.3410
H  2.6755    1.4779    -1.1368
H  3.1901    -0.1431    -1.6194
C  1.0280    0.4953    0.6355
H  0.7530    1.4314    0.1485
C  0.0305    0.0317    1.6642
H  0.4871    -0.6781    2.3617
H  -0.2531    0.8945    2.2792

