%chk=IsoP_rdkit_03_371_gaussian.chk
%nproc=6
%mem=4000Mb
#p opt=loose m062x/6-31g(d,p)

Conformer number 371. Energy MM = 23.486 kcal/mol

0 1
C  -0.8341    -0.7059    -1.0786
H  -0.7729    -1.5196    -0.3475
H  -1.1283    -1.1971    -2.0159
C  -1.9196    0.2884    -0.7096
C  -2.4291    1.1305    -1.8523
H  -3.2447    1.7946    -1.5468
H  -1.6281    1.7578    -2.2552
H  -2.8094    0.4909    -2.6556
C  -2.4479    0.4270    0.5230
H  -3.2408    1.1602    0.6686
C  -2.0673    -0.3006    1.7737
H  -2.9104    -0.9061    2.1201
H  -1.8249    0.4246    2.5573
H  -1.2020    -0.9556    1.6568
C  2.7478    -1.4047    0.5496
H  2.6669    -2.0248    1.4490
H  3.8095    -1.2675    0.3204
H  2.2975    -1.9731    -0.2672
C  2.0929    -0.0715    0.7820
C  2.5748    0.6497    2.0137
H  2.0812    1.6178    2.1493
H  2.3774    0.0483    2.9071
H  3.6523    0.8327    1.9475
C  1.1410    0.4724    -0.0012
H  0.7247    1.4389    0.2844
C  0.5579    -0.0868    -1.2722
H  0.5155    0.7205    -2.0136
H  1.2201    -0.8411    -1.7094

