%chk=IsoP_rdkit_03_341_gaussian.chk
%nproc=6
%mem=4000Mb
#p opt=loose m062x/6-31g(d,p)

Conformer number 341. Energy MM = 23.287 kcal/mol

0 1
C  -0.7621    -0.1349    -0.4571
H  -0.1711    0.1815    -1.3273
H  -1.0162    -1.1829    -0.6559
C  -2.0149    0.7131    -0.3791
C  -1.8326    2.1567    -0.7730
H  -1.1051    2.6442    -0.1164
H  -2.7667    2.7250    -0.7102
H  -1.4722    2.2260    -1.8046
C  -3.2275    0.2504    -0.0159
H  -4.0702    0.9414    -0.0156
C  -3.5800    -1.1353    0.4239
H  -2.7105    -1.7796    0.5718
H  -4.1172    -1.0896    1.3768
H  -4.2368    -1.6040    -0.3151
C  3.0161    0.9012    0.2231
H  3.6456    1.2647    1.0418
H  3.5977    0.9448    -0.7041
H  2.1817    1.5962    0.1050
C  2.5820    -0.5129    0.4937
C  3.7026    -1.5196    0.4745
H  4.4520    -1.2659    1.2314
H  4.1878    -1.5290    -0.5070
H  3.3523    -2.5363    0.6818
C  1.3133    -0.9020    0.7268
H  1.1170    -1.9616    0.8922
C  0.0865    -0.0337    0.8144
H  -0.5001    -0.3667    1.6804
H  0.3484    1.0087    1.0214

