%chk=IsoP_00035_gaussian.chk
%nproc=4
%mem=4000Mb
#p 6-31g* mp2

Conformer number 00035. Energy MM = 23.287 kcal/mol

0 1
C  0.9392    0.1072    0.3158
H  0.7415    0.3744    1.3626
H  1.3527    1.0180    -0.1335
C  1.9552    -1.0158    0.2784
C  1.8175    -2.0362    1.3795
H  0.8382    -2.5227    1.3309
H  2.5792    -2.8205    1.3157
H  1.9194    -1.5551    2.3577
C  2.9409    -1.1223    -0.6345
H  3.6346    -1.9591    -0.5569
C  3.2072    -0.2202    -1.7977
H  4.1556    0.3054    -1.6509
H  2.4225    0.5216    -1.9620
H  3.2869    -0.8178    -2.7115
C  -2.8552    0.0204    1.5018
H  -3.8023    -0.4564    1.2294
H  -2.1195    -0.7674    1.6790
H  -2.9942    0.5433    2.4542
C  -2.4413    0.9951    0.4339
C  -3.3475    2.1913    0.3018
H  -3.3716    2.7548    1.2402
H  -3.0209    2.8755    -0.4885
H  -4.3662    1.8694    0.0621
C  -1.3573    0.8642    -0.3555
H  -1.1479    1.6475    -1.0843
C  -0.3708    -0.2728    -0.3819
H  -0.1736    -0.5227    -1.4325
H  -0.7943    -1.1800    0.0604


