%chk=IsoP_00024_gaussian.chk
%nproc=4
%mem=4000Mb
#p 6-31g* mp2

Conformer number 00024. Energy MM = 24.846 kcal/mol

0 1
C  0.6061    -0.6508    1.1520
H  0.5569    0.2923    1.7111
H  0.8562    -1.4134    1.9024
C  1.7262    -0.5823    0.1261
C  1.8851    0.7371    -0.5813
H  1.1733    0.8212    -1.4069
H  1.7130    1.5681    0.1111
H  2.8911    0.8807    -0.9845
C  2.5352    -1.6445    -0.0627
H  2.3563    -2.5444    0.5254
C  3.6722    -1.7698    -1.0265
H  4.6190    -1.8218    -0.4805
H  3.7286    -0.9478    -1.7433
H  3.5606    -2.6943    -1.6025
C  -2.8231    2.0651    -0.7466
H  -2.4830    1.9090    -1.7758
H  -2.5255    3.0756    -0.4481
H  -3.9165    2.0090    -0.7458
C  -2.2491    1.0492    0.2055
C  -2.6886    1.2176    1.6336
H  -3.7656    1.0403    1.7194
H  -2.4785    2.2372    1.9739
H  -2.1809    0.5402    2.3246
C  -1.4047    0.0952    -0.2329
H  -1.1457    0.0751    -1.2912
C  -0.7714    -1.0059    0.5743
H  -1.4357    -1.2966    1.3964
H  -0.6936    -1.8987    -0.0595


