%chk=IsoP_00003_gaussian.chk
%nproc=4
%mem=4000Mb
#p 6-31g* mp2

Conformer number 00003. Energy MM = 23.759 kcal/mol

0 1
C  0.3207    -0.9804    -0.0446
H  -0.0597    -1.9888    0.1650
H  -0.0403    -0.7309    -1.0515
C  1.8398    -1.0136    -0.0263
C  2.4511    -1.6467    1.1950
H  1.9469    -2.5919    1.4235
H  3.5108    -1.8821    1.0739
H  2.3496    -0.9838    2.0598
C  2.5403    -0.5270    -1.0703
H  1.9896    -0.1117    -1.9145
C  4.0255    -0.4549    -1.2315
H  4.3119    0.5646    -1.5097
H  4.5780    -0.7097    -0.3251
H  4.3451    -1.1279    -2.0329
C  -4.0529    0.8706    0.4089
H  -4.4741    0.8124    -0.6001
H  -4.3769    -0.0209    0.9562
H  -4.4785    1.7435    0.9146
C  -2.5523    0.9878    0.3428
C  -2.0591    2.2037    -0.3922
H  -2.3219    3.1106    0.1620
H  -0.9784    2.2066    -0.5508
H  -2.5241    2.2583    -1.3825
C  -1.7648    0.0481    0.9014
H  -2.2398    -0.8008    1.3936
C  -0.2603    0.0232    0.9583
H  0.1671    1.0171    0.7905
H  0.0277    -0.2538    1.9801


