%chk=IsoP_00005_gaussian.chk
%nproc=4
%mem=4000Mb
#p 6-31g* mp2

Conformer number 00005. Energy MM = 23.242 kcal/mol

0 1
C  0.4666    -1.0868    0.1486
H  0.1687    -0.9533    -0.8983
H  0.0348    -2.0528    0.4431
C  1.9748    -1.1635    0.2676
C  2.4831    -1.9772    1.4300
H  2.1236    -3.0088    1.3571
H  3.5771    -2.0100    1.4665
H  2.1339    -1.5524    2.3763
C  2.8363    -0.5841    -0.5918
H  3.9053    -0.7193    -0.4291
C  2.5062    0.2716    -1.7739
H  1.4475    0.5309    -1.8420
H  2.7976    -0.2403    -2.6960
H  3.0678    1.2094    -1.7129
C  -3.8658    0.8965    0.1887
H  -4.2477    0.7174    -0.8217
H  -4.2384    0.0927    0.8323
H  -4.2846    1.8385    0.5578
C  -2.3610    0.9667    0.1735
C  -1.8015    2.0627    -0.6911
H  -0.7153    2.0197    -0.7982
H  -2.2218    1.9963    -1.7005
H  -2.0613    3.0409    -0.2736
C  -1.6252    0.0890    0.8833
H  -2.1442    -0.6765    1.4603
C  -0.1256    0.0357    1.0067
H  0.3333    0.9955    0.7479
H  0.1173    -0.1307    2.0639


