%chk=IsoP_00014_gaussian.chk
%nproc=4
%mem=4000Mb
#p 6-31g* mp2

Conformer number 00014. Energy MM = 23.242 kcal/mol

0 1
C  0.4595    -1.0390    0.4277
H  -0.0267    -1.2424    -0.5339
H  0.0826    -1.8180    1.1041
C  1.9629    -1.1778    0.3043
C  2.6721    -1.5900    1.5687
H  2.5083    -0.8498    2.3582
H  2.2974    -2.5585    1.9156
H  3.7536    -1.6859    1.4253
C  2.6542    -0.9813    -0.8360
H  3.7337    -1.1294    -0.8234
C  2.1167    -0.5488    -2.1635
H  2.6871    0.3134    -2.5241
H  2.2277    -1.3586    -2.8909
H  1.0657    -0.2531    -2.1329
C  -1.9007    1.8006    -1.0333
H  -0.8538    1.6477    -1.3045
H  -2.0708    2.8778    -0.9369
H  -2.5018    1.4305    -1.8710
C  -2.2982    1.0989    0.2362
C  -3.7744    1.1443    0.5331
H  -4.0271    0.6302    1.4664
H  -4.1101    2.1825    0.6246
H  -4.3389    0.6652    -0.2736
C  -1.4501    0.4593    1.0651
H  -1.8587    -0.0307    1.9490
C  0.0458    0.3445    0.9393
H  0.4797    0.5243    1.9311
H  0.4560    1.1277    0.2934


