%chk=IsoP_00037_gaussian.chk
%nproc=4
%mem=4000Mb
#p 6-31g* mp2

Conformer number 00037. Energy MM = 23.287 kcal/mol

0 1
C  0.4978    -0.8213    -0.1486
H  -0.2241    -1.5060    0.3166
H  0.4419    -1.0404    -1.2216
C  1.8811    -1.1267    0.3878
C  1.9288    -1.5123    1.8443
H  1.5431    -0.7002    2.4686
H  1.3211    -2.4060    2.0204
H  2.9470    -1.7330    2.1818
C  3.0090    -1.0946    -0.3493
H  3.9523    -1.3550    0.1302
C  3.1460    -0.7143    -1.7896
H  3.9230    0.0503    -1.8922
H  3.4472    -1.5867    -2.3773
H  2.2295    -0.3061    -2.2212
C  -3.7243    1.3631    -0.4976
H  -3.5703    1.5061    -1.5723
H  -4.4524    0.5552    -0.3707
H  -4.1556    2.2870    -0.0982
C  -2.4447    1.0314    0.2250
C  -2.6044    0.8351    1.7074
H  -2.8817    1.7806    2.1845
H  -3.3953    0.1038    1.9065
H  -1.7008    0.4631    2.1957
C  -1.2839    0.9201    -0.4500
H  -1.2951    1.0671    -1.5301
C  0.0824    0.6302    0.1120
H  0.7953    1.3129    -0.3684
H  0.1320    0.8596    1.1810


