%chk=IsoP_00008_gaussian.chk
%nproc=4
%mem=4000Mb
#p 6-31g* mp2

Conformer number 00008. Energy MM = 23.486 kcal/mol

0 1
C  1.1244    0.0991    1.2465
H  1.2092    1.0917    0.7907
H  1.6459    0.1905    2.2087
C  1.8440    -0.9516    0.4211
C  2.2253    -2.2026    1.1723
H  2.8550    -1.9523    2.0322
H  1.3323    -2.7222    1.5329
H  2.7858    -2.9067    0.5481
C  2.1720    -0.8151    -0.8795
H  2.7096    -1.6278    -1.3674
C  1.8700    0.3344    -1.7883
H  2.8034    0.8065    -2.1096
H  1.2384    1.1006    -1.3350
H  1.3503    -0.0326    -2.6793
C  -2.8504    0.6033    -1.3932
H  -2.6623    -0.3599    -1.8790
H  -3.9220    0.6621    -1.1763
H  -2.5956    1.3916    -2.1091
C  -2.0530    0.7712    -0.1261
C  -2.2832    2.0777    0.5812
H  -2.1351    2.9119    -0.1131
H  -3.3089    2.1241    0.9614
H  -1.6048    2.2421    1.4213
C  -1.2073    -0.1943    0.2835
H  -1.1093    -1.0914    -0.3287
C  -0.3538    -0.2113    1.5241
H  -0.4537    -1.1970    1.9950
H  -0.7282    0.4994    2.2680


