%chk=IsoP_00039_gaussian.chk
%nproc=4
%mem=4000Mb
#p 6-31g* mp2

Conformer number 00039. Energy MM = 23.712 kcal/mol

0 1
C  0.6045    0.0421    -0.5304
H  0.9306    1.0076    -0.9404
H  -0.0839    -0.3783    -1.2753
C  1.7939    -0.8911    -0.3781
C  1.4456    -2.3358    -0.1364
H  0.6606    -2.6568    -0.8297
H  2.2889    -3.0132    -0.2884
H  1.0807    -2.4748    0.8858
C  3.0494    -0.4142    -0.4945
H  3.1832    0.6488    -0.6954
C  4.3365    -1.1645    -0.3616
H  4.9912    -0.6412    0.3429
H  4.8441    -1.2057    -1.3301
H  4.2134    -2.1842    0.0082
C  -3.1858    -0.3794    0.5682
H  -2.4443    -1.1806    0.5274
H  -3.8444    -0.5138    -0.2967
H  -3.7800    -0.5144    1.4777
C  -2.5797    0.9967    0.5462
C  -3.5822    2.1133    0.4125
H  -4.1440    2.0094    -0.5216
H  -3.1075    3.1002    0.4068
H  -4.2886    2.0895    1.2487
C  -1.2612    1.2631    0.6235
H  -0.9380    2.3034    0.5783
C  -0.1331    0.2803    0.7923
H  -0.4904    -0.6648    1.2126
H  0.5626    0.6896    1.5364


