%chk=IsoP_00032_gaussian.chk
%nproc=4
%mem=4000Mb
#p 6-31g* mp2

Conformer number 00032. Energy MM = 23.759 kcal/mol

0 1
C  0.8509    0.1231    0.6434
H  0.8171    1.0539    0.0611
H  1.0999    0.4246    1.6693
C  1.9498    -0.7846    0.1164
C  2.3108    -1.9388    1.0130
H  1.5249    -2.6999    0.9902
H  3.2528    -2.4192    0.7391
H  2.4271    -1.5932    2.0459
C  2.5479    -0.5109    -1.0603
H  2.2199    0.3681    -1.6154
C  3.6264    -1.2851    -1.7491
H  4.5506    -0.6996    -1.7663
H  3.3290    -1.4805    -2.7846
H  3.8373    -2.2508    -1.2859
C  -3.5417    1.9344    1.0719
H  -3.4470    1.9149    2.1627
H  -3.4350    2.9748    0.7476
H  -4.5510    1.5926    0.8202
C  -2.5141    1.0673    0.3923
C  -2.6109    1.0547    -1.1084
H  -2.6096    2.0801    -1.4936
H  -1.7812    0.5349    -1.5928
H  -3.5417    0.5707    -1.4213
C  -1.6002    0.3907    1.1151
H  -1.6181    0.4932    2.2003
C  -0.5309    -0.5400    0.6075
H  -0.5386    -1.4324    1.2458
H  -0.7531    -0.8982    -0.4030


