%chk=IsoP_00041_gaussian.chk
%nproc=4
%mem=4000Mb
#p 6-31g* mp2

Conformer number 00041. Energy MM = 23.712 kcal/mol

0 1
C  0.7783    0.2620    -0.1973
H  0.7964    1.0877    0.5262
H  0.8968    0.7303    -1.1838
C  1.9478    -0.6658    0.0861
C  2.0746    -1.1149    1.5176
H  1.9551    -0.2615    2.1939
H  3.0472    -1.5569    1.7456
H  1.3036    -1.8541    1.7556
C  2.8007    -1.0033    -0.9018
H  2.6256    -0.5978    -1.8983
C  3.9893    -1.9080    -0.8244
H  3.9296    -2.6556    -1.6222
H  4.9065    -1.3293    -0.9696
H  4.0675    -2.4493    0.1203
C  -3.6826    1.9374    -0.1884
H  -3.5816    2.9540    0.2055
H  -3.6721    2.0020    -1.2816
H  -4.6589    1.5427    0.1114
C  -2.5804    1.0590    0.3437
C  -2.5598    0.9317    1.8421
H  -2.5587    1.9251    2.3036
H  -1.6795    0.4071    2.2207
H  -3.4485    0.3930    2.1863
C  -1.7058    0.4703    -0.4952
H  -1.8098    0.6518    -1.5652
C  -0.5742    -0.4576    -0.1408
H  -0.7293    -0.9149    0.8412
H  -0.5822    -1.2889    -0.8577


