%chk=IsoP_00026_gaussian.chk
%nproc=4
%mem=4000Mb
#p 6-31g* mp2

Conformer number 00026. Energy MM = 23.759 kcal/mol

0 1
C  0.8509    0.1231    0.6433
H  0.8173    1.0539    0.0609
H  1.1000    0.4246    1.6693
C  1.9499    -0.7846    0.1164
C  2.3107    -1.9388    1.0130
H  3.2528    -2.4192    0.7392
H  2.4268    -1.5933    2.0460
H  1.5249    -2.7000    0.9901
C  2.5480    -0.5110    -1.0604
H  2.2201    0.3680    -1.6155
C  3.6265    -1.2853    -1.7491
H  3.3290    -1.4809    -2.7845
H  4.5506    -0.6998    -1.7664
H  3.8375    -2.2509    -1.2857
C  -3.5416    1.9346    1.0720
H  -3.4466    1.9152    2.1628
H  -3.4350    2.9749    0.7475
H  -4.5510    1.5926    0.8206
C  -2.5141    1.0674    0.3923
C  -2.6113    1.0545    -1.1084
H  -1.7818    0.5345    -1.5928
H  -2.6098    2.0799    -1.4937
H  -3.5423    0.5707    -1.4210
C  -1.6001    0.3909    1.1151
H  -1.6178    0.4935    2.2003
C  -0.5309    -0.5399    0.6074
H  -0.7531    -0.8981    -0.4031
H  -0.5386    -1.4323    1.2457


