%chk=IsoP_00029_gaussian.chk
%nproc=4
%mem=4000Mb
#p 6-31g* mp2

Conformer number 00029. Energy MM = 23.712 kcal/mol

0 1
C  0.8254    0.2624    0.2446
H  1.1725    1.2487    -0.0919
H  0.6574    0.3607    1.3252
C  1.9038    -0.7815    0.0076
C  1.6871    -2.0950    0.7108
H  2.5814    -2.7216    0.7379
H  0.8911    -2.6638    0.2206
H  1.3968    -1.9230    1.7529
C  2.9744    -0.4889    -0.7577
H  3.0399    0.5059    -1.1983
C  4.1209    -1.3795    -1.1181
H  4.2654    -1.3648    -2.2033
H  5.0384    -1.0120    -0.6485
H  3.9757    -2.4211    -0.8257
C  -2.9150    -0.1095    1.5181
H  -3.8535    -0.5877    1.2198
H  -3.0384    0.2896    2.5308
H  -2.1456    -0.8829    1.5756
C  -2.5747    1.0017    0.5636
C  -3.5270    2.1683    0.6059
H  -3.2536    2.9547    -0.1056
H  -4.5416    1.8373    0.3610
H  -3.5375    2.6139    1.6059
C  -1.5157    1.0095    -0.2693
H  -1.3605    1.8822    -0.9040
C  -0.4912    -0.0766    -0.4639
H  -0.3149    -0.1851    -1.5420
H  -0.8729    -1.0461    -0.1295


