%chk=IsoP_00011_gaussian.chk
%nproc=4
%mem=4000Mb
#p 6-31g* mp2

Conformer number 00011. Energy MM = 23.287 kcal/mol

0 1
C  0.4874    -0.7355    -0.3410
H  -0.2633    -1.4996    -0.0980
H  0.4581    -0.6505    -1.4339
C  1.8470    -1.2175    0.1212
C  1.8430    -1.9888    1.4165
H  1.2102    -2.8778    1.3268
H  2.8455    -2.3239    1.7028
H  1.4576    -1.3677    2.2312
C  2.9966    -1.0185    -0.5536
H  3.9192    -1.4284    -0.1433
C  3.1846    -0.2624    -1.8305
H  3.9814    0.4774    -1.7020
H  3.4830    -0.9489    -2.6285
H  2.2907    0.2757    -2.1536
C  -2.6297    0.4410    1.8295
H  -3.4425    -0.2929    1.8025
H  -2.8994    1.2274    2.5418
H  -1.7496    -0.0775    2.2167
C  -2.4220    1.0311    0.4620
C  -3.6719    1.5863    -0.1698
H  -4.4215    0.7967    -0.2859
H  -3.4830    2.0136    -1.1602
H  -4.0936    2.3778    0.4583
C  -1.2446    1.0743    -0.1918
H  -1.2206    1.5119    -1.1900
C  0.0976    0.6007    0.2990
H  0.8397    1.3672    0.0405
H  0.1209    0.5269    1.3908


