%chk=IsoP_00028_gaussian.chk
%nproc=4
%mem=4000Mb
#p 6-31g* mp2

Conformer number 00028. Energy MM = 25.493 kcal/mol

0 1
C  0.7679    -0.2884    1.3535
H  1.3402    -0.1013    2.2722
H  -0.0247    -0.9989    1.6266
C  1.7131    -0.9821    0.3760
C  2.0290    -2.3998    0.7872
H  2.3331    -2.4261    1.8395
H  1.1424    -3.0312    0.6694
H  2.8436    -2.8512    0.2175
C  2.2303    -0.3905    -0.7201
H  1.9860    0.6483    -0.9297
C  3.1346    -0.9880    -1.7527
H  4.1334    -0.5488    -1.6712
H  2.7446    -0.7606    -2.7504
H  3.2247    -2.0736    -1.6851
C  -3.1946    0.7175    -1.1768
H  -3.8385    1.5954    -1.2932
H  -2.6298    0.5947    -2.1070
H  -3.8290    -0.1664    -1.0543
C  -2.2964    0.8861    0.0215
C  -3.0310    1.0676    1.3208
H  -2.3783    1.0507    2.1962
H  -3.7606    0.2617    1.4556
H  -3.5686    2.0214    1.3188
C  -0.9563    0.8553    -0.1184
H  -0.5489    0.6967    -1.1167
C  0.0915    1.0330    0.9505
H  -0.3458    1.4817    1.8484
H  0.8331    1.7634    0.6071


