%chk=IsoP_00047_gaussian.chk
%nproc=4
%mem=4000Mb
#p 6-31g* mp2

Conformer number 00047. Energy MM = 23.287 kcal/mol

0 1
C  0.4978    -0.8213    -0.1486
H  -0.2241    -1.5060    0.3166
H  0.4419    -1.0404    -1.2215
C  1.8811    -1.1267    0.3878
C  1.9288    -1.5123    1.8443
H  1.3212    -2.4059    2.0204
H  2.9471    -1.7330    2.1818
H  1.5431    -0.7002    2.4686
C  3.0090    -1.0946    -0.3493
H  3.9523    -1.3550    0.1302
C  3.1460    -0.7143    -1.7896
H  3.9229    0.0502    -1.8923
H  3.4472    -1.5867    -2.3773
H  2.2295    -0.3061    -2.2212
C  -3.7243    1.3631    -0.4976
H  -4.4524    0.5552    -0.3707
H  -4.1556    2.2870    -0.0983
H  -3.5703    1.5060    -1.5723
C  -2.4447    1.0314    0.2250
C  -2.6043    0.8351    1.7074
H  -1.7007    0.4631    2.1957
H  -2.8817    1.7806    2.1845
H  -3.3952    0.1038    1.9065
C  -1.2839    0.9201    -0.4500
H  -1.2951    1.0670    -1.5302
C  0.0824    0.6302    0.1120
H  0.7953    1.3129    -0.3684
H  0.1320    0.8597    1.1810


