%chk=IsoP_00027_gaussian.chk
%nproc=4
%mem=4000Mb
#p 6-31g* mp2

Conformer number 00027. Energy MM = 23.712 kcal/mol

0 1
C  0.3675    -0.6796    -0.3653
H  0.2404    -0.7741    -1.4522
H  -0.3017    -1.4293    0.0770
C  1.7990    -1.0069    0.0253
C  2.0246    -1.2297    1.4971
H  2.9808    -1.7093    1.7184
H  1.9911    -0.2784    2.0369
H  1.2470    -1.8851    1.9042
C  2.7530    -1.1124    -0.9213
H  2.4700    -0.9544    -1.9620
C  4.2075    -1.4079    -0.7353
H  4.5275    -1.3951    0.3083
H  4.8017    -0.6565    -1.2655
H  4.4443    -2.3886    -1.1588
C  -3.9011    1.4365    -0.2779
H  -4.3298    2.2971    0.2459
H  -4.6076    0.6024    -0.2143
H  -3.8007    1.7071    -1.3343
C  -2.5830    1.0532    0.3427
C  -2.6689    0.6818    1.7974
H  -3.4362    -0.0860    1.9446
H  -2.9402    1.5586    2.3943
H  -1.7366    0.2767    2.1975
C  -1.4535    1.0484    -0.3920
H  -1.5184    1.3197    -1.4459
C  -0.0572    0.7274    0.0708
H  0.0373    0.8423    1.1550
H  0.6222    1.4716    -0.3649


