%chk=IsoP_00030_gaussian.chk
%nproc=4
%mem=4000Mb
#p 6-31g* mp2

Conformer number 00030. Energy MM = 24.537 kcal/mol

0 1
C  0.6183    -0.3824    0.7801
H  0.4007    -0.9978    1.6639
H  0.7159    0.6527    1.1355
C  1.9778    -0.8142    0.2382
C  3.0771    -0.6652    1.2620
H  3.2245    0.3929    1.5022
H  4.0383    -1.0700    0.9406
H  2.8060    -1.1926    2.1832
C  2.1726    -1.2810    -1.0122
H  1.3224    -1.3710    -1.6852
C  3.4557    -1.7079    -1.6550
H  3.5706    -1.1907    -2.6134
H  3.4300    -2.7840    -1.8522
H  4.3447    -1.4887    -1.0620
C  -2.0617    2.2989    -0.4607
H  -1.0659    2.1604    -0.8876
H  -2.7647    2.4531    -1.2857
H  -2.0249    3.2164    0.1365
C  -2.5119    1.1456    0.3930
C  -3.7964    1.3930    1.1405
H  -4.6084    1.6053    0.4372
H  -3.6852    2.2495    1.8134
H  -4.0983    0.5317    1.7457
C  -1.8559    -0.0240    0.5239
H  -2.2727    -0.7810    1.1887
C  -0.5876    -0.4519    -0.1680
H  -0.7329    -1.4833    -0.5138
H  -0.4031    0.1471    -1.0652


