%chk=IsoP_00031_gaussian.chk
%nproc=4
%mem=4000Mb
#p 6-31g* mp2

Conformer number 00031. Energy MM = 23.759 kcal/mol

0 1
C  0.3213    -0.9685    0.3135
H  -0.2441    -1.1498    -0.6106
H  0.0303    -1.7733    1.0014
C  1.8132    -1.0679    0.0426
C  2.6816    -1.1558    1.2692
H  3.7037    -1.4737    1.0518
H  2.7300    -0.1854    1.7727
H  2.2707    -1.8892    1.9715
C  2.2703    -1.1041    -1.2252
H  1.5455    -1.0570    -2.0380
C  3.6889    -1.1823    -1.6925
H  4.4216    -1.0582    -0.8930
H  3.8737    -0.3916    -2.4271
H  3.8668    -2.1460    -2.1793
C  -2.2018    1.8869    -0.8711
H  -2.8579    1.5416    -1.6775
H  -1.1759    1.7678    -1.2267
H  -2.3830    2.9550    -0.7135
C  -2.4897    1.1220    0.3913
C  -3.9407    1.1200    0.7968
H  -4.5533    0.6626    0.0131
H  -4.1133    0.5608    1.7224
H  -4.2897    2.1452    0.9583
C  -1.5701    0.4676    1.1272
H  -1.9032    -0.0686    2.0160
C  -0.0850    0.3928    0.8898
H  0.2610    1.1997    0.2357
H  0.4129    0.5592    1.8533


