%Mem=61440MB 
%NProc=8 

#P B3LYP/6-31G(d) Integral=Ultrafine Opt=(Tight,MaxCycle=55) GFInput GFPrint SCF(Conver=8,XQC,MaxConventionalCycles=64,MaxCycle=128) Test 

 Optimization step - Input generated by PyRED DVE-DMDS-OPLS 

0 1 
C       -9.089000        -0.946000        -0.503000
H       -8.921000        -0.263000         0.334000
H       -9.263000        -0.349000        -1.403000
H       -9.996000        -1.520000        -0.288000
C       -7.911000        -1.887000        -0.716000
H       -7.722000        -2.476000         0.195000
H       -8.136000        -2.590000        -1.523000
O       -6.727000        -1.227000        -1.114000
C       -6.083000        -0.500000        -0.096000
H       -5.949000        -1.131000         0.797000
H       -6.656000         0.388000         0.207000
C       -4.740000        -0.054000        -0.658000
H       -4.143000        -0.933000        -0.934000
H       -4.917000         0.531000        -1.564000
O       -4.033000         0.781000         0.234000
C       -3.354000         0.102000         1.270000
H       -2.743000        -0.714000         0.859000
H       -4.064000        -0.336000         1.989000
C       -2.457000         1.077000         2.007000
H       -2.123000         0.605000         2.937000
H       -3.038000         1.975000         2.268000
O       -1.285000         1.428000         1.309000
C       -1.447000         2.412000         0.304000
H       -1.938000         3.300000         0.736000
H       -2.079000         2.042000        -0.509000
C       -0.077000         2.806000        -0.214000
H        0.564000         3.111000         0.619000
H       -0.185000         3.667000        -0.880000
S        0.783000         1.542000        -1.205000
C        1.416000         0.429000         0.101000
H        2.037000         1.016000         0.784000
H        0.580000         0.022000         0.668000
C        2.228000        -0.683000        -0.549000
H        3.040000        -0.280000        -1.162000
H        1.593000        -1.273000        -1.216000
S        2.896000        -1.897000         0.631000
C        4.100000        -0.900000         1.571000
H        4.564000        -1.618000         2.253000
H        3.574000        -0.162000         2.183000
C        5.175000        -0.193000         0.753000
H        4.725000         0.576000         0.118000
H        5.855000         0.313000         1.447000
S        6.146000        -1.361000        -0.257000
C        7.606000        -0.325000        -0.599000
H        8.040000         0.003000         0.352000
H        8.327000        -1.009000        -1.056000
C        7.348000         0.862000        -1.518000
H        6.645000         1.571000        -1.073000
H        8.281000         1.401000        -1.715000
H        6.933000         0.531000        -2.474000
 

