%Mem=61440MB 
%NProc=8 

#P B3LYP/6-31G(d) Integral=Ultrafine Opt=(Tight,MaxCycle=55) GFInput GFPrint SCF(Conver=8,XQC,MaxConventionalCycles=64,MaxCycle=128) Test 

 Optimization step - Input generated by PyRED DVE-DMDS-OPLS 

0 1 
C        9.071009        -1.770058         0.882445
H        9.939718        -1.927062         1.532512
H        8.215282        -2.272709         1.346140
H        9.270670        -2.249686        -0.081698
C        8.822370        -0.274704         0.691501
H        8.609437         0.205654         1.660939
H        9.716117         0.202335         0.275395
O        7.781870         0.020109        -0.231971
C        6.472893        -0.213166         0.250566
H        6.321510         0.264127         1.232625
H        6.270287        -1.288906         0.371558
C        5.508814         0.398922        -0.766325
H        5.684665         1.477588        -0.823674
H        5.699927        -0.027150        -1.761906
O        4.151693         0.219998        -0.383806
C        3.571461        -1.009588        -0.803697
H        4.116250        -1.867062        -0.376200
H        3.611576        -1.098089        -1.900907
C        2.124784        -1.076646        -0.332450
H        2.075728        -0.826541         0.735678
H        1.773567        -2.107619        -0.447637
O        1.208371        -0.299998        -1.090129
C        1.317590         1.114358        -1.014343
H        0.496262         1.482101        -1.638224
H        2.258957         1.457533        -1.464546
C        1.232771         1.735815         0.383788
H        1.193956         2.825096         0.261997
H        2.138746         1.510933         0.954414
S       -0.143268         1.196167         1.477585
C       -1.627130         1.468595         0.417709
H       -2.416368         1.807369         1.095712
H       -1.425640         2.291453        -0.275104
C       -2.060502         0.208867        -0.336569
H       -2.306083        -0.592808         0.366823
H       -1.246757        -0.164202        -0.963441
S       -3.477140         0.490668        -1.479389
C       -4.901054         0.590560        -0.314251
H       -5.701054         1.054332        -0.899678
H       -4.668623         1.274557         0.507210
C       -5.343687        -0.770988         0.223726
H       -5.576423        -1.455088        -0.597541
H       -4.543422        -1.234636         0.808811
S       -6.766588        -0.675572         1.387528
C       -8.177437        -0.369832         0.244484
H       -8.996698        -0.077626         0.910029
H       -7.954599         0.501943        -0.380295
C       -8.582980        -1.571683        -0.607643
H       -8.846497        -2.426903         0.022269
H       -9.451161        -1.319210        -1.229595
H       -7.776288        -1.883521        -1.279659
 

