%Mem=61440MB 
%NProc=8 

#P B3LYP/6-31G(d) Integral=Ultrafine Opt=(Tight,MaxCycle=55) GFInput GFPrint SCF(Conver=8,XQC,MaxConventionalCycles=64,MaxCycle=128) Test 

 Optimization step - Input generated by PyRED DVE-DMDS-OPLS 

0 1 
C        8.139673         0.836884         1.144709
H        8.750169        -0.067798         1.051958
H        8.249947         1.421553         0.225256
H        8.542183         1.424896         1.977765
C        6.668235         0.511585         1.395776
H        6.556501        -0.080157         2.318863
H        6.097545         1.437354         1.525721
O        6.040616        -0.164414         0.310192
C        6.379903        -1.534405         0.184170
H        6.275483        -2.049195         1.152517
H        7.423571        -1.653382        -0.151182
C        5.465176        -2.202728        -0.837739
H        5.424631        -1.580563        -1.742804
H        5.914259        -3.168858        -1.110983
O        4.152639        -2.472957        -0.343411
C        3.052317        -1.701547        -0.832459
H        2.187760        -2.375312        -0.880314
H        3.253648        -1.345700        -1.853613
C        2.706735        -0.527433         0.093643
H        3.546984         0.172235         0.149969
H        2.521338        -0.917898         1.100375
O        1.509361         0.129641        -0.320788
C        1.704316         1.169418        -1.269346
H        2.147835         0.775110        -2.199703
H        2.392715         1.926719        -0.864872
C        0.356356         1.797950        -1.594094
H       -0.367075         1.025640        -1.872667
H        0.465369         2.463087        -2.457684
S       -0.367581         2.869639        -0.292392
C       -0.943137         1.682473         0.994806
H       -0.081019         1.339118         1.572722
H       -1.573902         2.297510         1.645038
C       -1.719168         0.457175         0.516652
H       -2.083692        -0.069426         1.406670
H       -1.050178        -0.220021        -0.022519
S       -3.159932         0.901658        -0.541513
C       -4.014243        -0.723269        -0.569860
H       -3.276346        -1.502628        -0.801435
H       -4.695209        -0.672674        -1.425529
C       -4.783340        -1.109484         0.700486
H       -5.067178        -2.167564         0.647276
H       -4.148723        -1.002934         1.585864
S       -6.276101        -0.107297         1.068834
C       -7.475238        -0.750720        -0.169612
H       -8.313702        -0.048832        -0.106220
H       -7.052864        -0.641212        -1.174971
C       -7.960380        -2.179530         0.073680
H       -7.140045        -2.903691         0.022253
H       -8.428883        -2.271333         1.058496
H       -8.697447        -2.464405        -0.687914
 

