%Mem=61440MB 
%NProc=8 

#P B3LYP/6-31G(d) Integral=Ultrafine Opt=(Tight,MaxCycle=55) GFInput GFPrint SCF(Conver=8,XQC,MaxConventionalCycles=64,MaxCycle=128) Test 

 Optimization step - Input generated by PyRED DVE-DMDS-OPLS 

0 1 
C       -9.484000        -0.041000        -0.563000
H       -9.057000        -0.800000        -1.225000
H       -9.622000        -0.487000         0.426000
H      -10.464000         0.248000        -0.954000
C       -8.570000         1.162000        -0.479000
H       -8.434000         1.619000        -1.471000
H       -9.003000         1.934000         0.178000
O       -7.323000         0.742000         0.033000
C       -6.393000         1.792000         0.163000
H       -6.755000         2.536000         0.893000
H       -6.251000         2.306000        -0.799000
C       -5.063000         1.236000         0.629000
H       -4.414000         2.070000         0.913000
H       -5.222000         0.615000         1.521000
O       -4.383000         0.525000        -0.384000
C       -4.697000        -0.858000        -0.480000
H       -4.490000        -1.144000        -1.516000
H       -5.761000        -1.024000        -0.282000
C       -3.852000        -1.726000         0.440000
H       -4.257000        -2.743000         0.427000
H       -3.911000        -1.355000         1.476000
O       -2.504000        -1.847000         0.041000
C       -1.691000        -0.723000         0.310000
H       -1.832000        -0.394000         1.351000
H       -1.947000         0.120000        -0.340000
C       -0.254000        -1.164000         0.087000
H       -0.122000        -1.457000        -0.959000
H       -0.046000        -2.032000         0.718000
S        0.876000         0.212000         0.475000
C        2.436000        -0.440000        -0.204000
H        2.283000        -0.748000        -1.242000
H        3.114000         0.418000        -0.216000
C        3.031000        -1.580000         0.613000
H        2.335000        -2.421000         0.653000
H        3.208000        -1.260000         1.644000
S        4.563000        -2.293000        -0.073000
C        5.782000        -0.968000         0.250000
H        6.710000        -1.466000         0.540000
H        5.452000        -0.391000         1.117000
C        6.046000        -0.069000        -0.956000
H        6.366000        -0.682000        -1.803000
H        5.141000         0.456000        -1.274000
S        7.369000         1.160000        -0.673000
C        6.416000         2.654000        -0.238000
H        7.165000         3.451000        -0.231000
H        5.725000         2.877000        -1.056000
C        5.684000         2.610000         1.097000
H        5.218000         3.579000         1.305000
H        4.887000         1.859000         1.095000
H        6.370000         2.373000         1.914000
 

