%Mem=61440MB 
%NProc=8 

#P B3LYP/6-31G(d) Integral=Ultrafine SCF(Conver=8,XQC,MaxConventionalCycles=64,MaxCycle=128) NoSymm Test 
   Pop=mk IOp(6/33=2) GFInput GFPrint 

 MEP step - Input generated by PyRED DVE-DMDS-OPLS 

0 1 
C       -7.981161        -5.090339        -0.000004
H       -8.446809        -6.081991         0.000012
H       -8.321303        -4.546286         0.887067
H       -8.321285        -4.546322        -0.887103
C       -6.466492        -5.215215         0.000014
H       -6.122538        -5.773904         0.887324
H       -6.122519        -5.773936        -0.887268
O       -5.908353        -3.911521        -0.000004
C       -4.495697        -3.909982         0.000008
H       -4.095642        -4.424893        -0.888904
H       -4.095657        -4.424871         0.888939
C       -4.038914        -2.458371        -0.000006
H       -4.436321        -1.943120        -0.889073
H       -4.436333        -1.943099         0.889043
O       -2.623878        -2.454595         0.000004
C       -2.069865        -1.153952        -0.000004
H       -2.388288        -0.586259         0.889076
H       -2.388282        -0.586272        -0.889095
C       -0.555343        -1.302211         0.000003
H       -0.236831        -1.869427        -0.889197
H       -0.236838        -1.869419         0.889210
O        0.000000        -0.000000         0.000000
C        1.415983        -0.000000         0.000000
H        1.803328        -0.523545        -0.889168
H        1.803327        -0.523543         0.889170
C        1.868566         1.455873        -0.000000
H        1.475148         1.960036         0.888786
H        1.475151         1.960035        -0.888788
S        3.702828         1.537578         0.000002
C        3.908525         3.365640         0.000015
H        3.422232         3.781953        -0.888482
H        3.422229         3.781941         0.888516
C        5.397807         3.705656         0.000021
H        5.883666         3.288824        -0.888550
H        5.883663         3.288806         0.888585
S        5.603573         5.534039         0.000040
C        7.441682         5.622580         0.000044
H        7.826073         5.110703        -0.888501
H        7.826072         5.110670         0.888570
C        7.877967         7.086671         0.000072
H        7.491595         7.598164        -0.888200
H        7.491594         7.598130         0.888360
S        9.714867         7.176194         0.000076
C        9.929303         9.002553         0.000119
H        9.435786         9.416109        -0.886682
H        9.435788         9.416066         0.886941
C       11.416152         9.356006         0.000126
H       11.542733        10.444505         0.000152
H       11.919136         8.956209         0.886839
H       11.919134         8.956251        -0.886609
 

