%Mem=61440MB 
%NProc=8 

#P B3LYP/6-31G(d) Integral=Ultrafine SCF(Conver=8,XQC,MaxConventionalCycles=64,MaxCycle=128) NoSymm Test 
   Pop=mk IOp(6/33=2) GFInput GFPrint 

 MEP step - Input generated by PyRED DVE-DMDS-OPLS 

0 1 
C       -0.753883         1.237429         8.110093
H       -0.808735         1.803391         9.047415
H       -1.295388         1.807137         7.347109
H       -1.267481         0.280924         8.254297
C        0.705609         1.004612         7.722739
H        1.219197         1.967680         7.565821
H        1.227075         0.479547         8.530126
O        0.869874         0.177906         6.577344
C        0.562723         0.799629         5.344542
H        1.078665         1.769195         5.250150
H       -0.517421         0.989173         5.243210
C        1.043763        -0.142038         4.239991
H        2.128158        -0.265772         4.320688
H        0.581151        -1.131365         4.368302
O        0.781690         0.382641         2.945332
C       -0.509511         0.079549         2.429779
H       -1.298531         0.488712         3.081577
H       -0.653070        -1.010972         2.370892
C       -0.662361         0.696321         1.045700
H       -0.360142         1.751481         1.079694
H       -1.721959         0.664031         0.770493
O        0.000000         0.000000         0.000000
C        1.420590         0.000000         0.000000
H        1.690290        -0.554291        -0.905023
H        1.810617        -0.557646         0.862284
C        2.107387         1.369847         0.000000
H        3.182406         1.203138        -0.139329
H        1.983585         1.856207         0.972165
S        1.522670         2.619769        -1.215278
C        1.623273         1.703035        -2.811798
H        1.936045         2.440778        -3.556956
H        2.421054         0.956771        -2.746091
C        0.295515         1.054206        -3.211476
H       -0.484000         1.814451        -3.321634
H       -0.046792         0.366383        -2.434265
S        0.406195         0.047849        -4.750081
C        0.458308         1.344379        -6.058268
H        0.827314         0.821793        -6.946270
H        1.200983         2.106372        -5.804352
C       -0.902609         1.985464        -6.334081
H       -1.645399         1.223699        -6.588271
H       -1.271491         2.507677        -5.445858
S       -0.854947         3.280768        -7.641025
C       -0.719970         2.272515        -9.175864
H       -0.456545         3.003012        -9.948202
H        0.131796         1.589517        -9.086405
C       -1.993168         1.520977        -9.562119
H       -2.831307         2.212411        -9.692789
H       -1.841715         0.978549       -10.503999
H       -2.277451         0.786205        -8.801269
 

