%Mem=61440MB 
%NProc=8 

#P B3LYP/6-31G(d) Integral=Ultrafine SCF(Conver=8,XQC,MaxConventionalCycles=64,MaxCycle=128) NoSymm Test 
   Pop=mk IOp(6/33=2) GFInput GFPrint 

 MEP step - Input generated by PyRED DVE-DMDS-OPLS 

0 1 
C       -1.337511        -4.578017        -1.593516
H       -0.252988        -4.634688        -1.740862
H       -1.736162        -5.596467        -1.537031
H       -1.778609        -4.086336        -2.467009
C       -1.659444        -3.802534        -0.326308
H       -1.215934        -4.298320         0.554046
H       -1.249784        -2.786395        -0.368105
O       -3.080562        -3.770756        -0.188516
C       -3.562020        -3.238627         1.028252
H       -2.997602        -3.638404         1.886913
H       -4.600485        -3.580633         1.115485
C       -3.554847        -1.715885         1.093383
H       -3.966634        -1.313732         0.153935
H       -4.206832        -1.378552         1.919797
O       -2.228538        -1.259716         1.292771
C       -2.075674         0.138191         1.160629
H       -2.589222         0.669346         1.981153
H       -2.504804         0.491580         0.209777
C       -0.597787         0.473970         1.195845
H       -0.134192        -0.002697         2.074489
H       -0.482492         1.564553         1.290950
O        0.000000         0.000000         0.000000
C        1.413730         0.000000         0.000000
H        1.702533        -0.537317        -0.908260
H        1.799209        -0.560446         0.869106
C        2.052940         1.392125        -0.000000
H        3.134101         1.270241        -0.129143
H        1.885838         1.905954         0.953428
S        1.366653         2.415316        -1.366852
C        2.544638         3.829681        -1.336098
H        2.029039         4.631204        -1.874459
H        2.679373         4.171386        -0.304743
C        3.895971         3.524488        -1.985785
H        3.761975         3.178130        -3.015587
H        4.413160         2.726187        -1.444499
S        5.071571         4.942299        -1.960845
C        4.397077         5.931227        -3.361447
H        3.302320         5.924440        -3.306727
H        4.683686         5.458262        -4.306976
C        4.866473         7.386432        -3.316681
H        4.413683         7.932056        -4.153930
H        4.525543         7.860799        -2.390960
S        6.679867         7.665906        -3.337448
C        7.117083         7.030699        -5.006850
H        6.928072         5.952902        -5.047799
H        6.476554         7.520549        -5.749900
C        8.590587         7.317252        -5.297032
H        8.860294         6.932703        -6.287134
H        8.796543         8.392495        -5.280725
H        9.240011         6.834451        -4.559159
 

