%Mem=61440MB 
%NProc=8 

#P B3LYP/6-31G(d) Integral=Ultrafine SCF(Conver=8,XQC,MaxConventionalCycles=64,MaxCycle=128) NoSymm Test 
   Pop=mk IOp(6/33=2) GFInput GFPrint 

 MEP step - Input generated by PyRED DVE-DMDS-OPLS 

0 1 
C        9.115127        -1.684065        -3.312225
H        9.045406        -1.563939        -2.225716
H        8.794198        -2.699786        -3.566523
H       10.169625        -1.574786        -3.591765
C        8.265206        -0.656153        -4.057564
H        8.581897         0.367048        -3.794224
H        8.398043        -0.774793        -5.138263
O        6.868257        -0.801062        -3.837794
C        6.415034        -0.362588        -2.571552
H        6.770622         0.662416        -2.370768
H        6.776122        -1.005253        -1.754290
C        4.886572        -0.415090        -2.607672
H        4.509891         0.244272        -3.403573
H        4.574106        -1.437393        -2.841329
O        4.301593        -0.090332        -1.355313
C        4.207858         1.299794        -1.081221
H        3.736615         1.828604        -1.924728
H        5.205540         1.741990        -0.921141
C        3.377159         1.515511         0.177254
H        3.510903         2.553677         0.502710
H        3.750916         0.854847         0.975696
O        1.981618         1.347529        -0.000000
C        1.522435        -0.000000        -0.000000
H        1.879175        -0.509788         0.912800
H        1.911587        -0.549388        -0.863677
C        0.000000         0.000000         0.000000
H       -0.377714         0.611087         0.827395
H       -0.352742        -1.025305         0.156373
S       -0.802313         0.537338        -1.563598
C       -0.649198         2.373718        -1.445917
H       -1.137594         2.700348        -0.521147
H        0.405791         2.643101        -1.389364
C       -1.313340         3.004479        -2.668001
H       -2.356392         2.686738        -2.767367
H       -0.798497         2.695076        -3.583365
S       -1.221890         4.839826        -2.694001
C       -2.414421         5.311403        -1.376810
H       -2.300462         6.396983        -1.294341
H       -2.096252         4.875598        -0.422865
C       -3.880848         4.956839        -1.627492
H       -4.011470         3.870961        -1.679564
H       -4.472002         5.319297        -0.776572
S       -4.531033         5.750353        -3.155880
C       -6.332467         5.715043        -2.789120
H       -6.508666         6.217012        -1.830041
H       -6.776020         6.346881        -3.566347
C       -6.969404         4.325418        -2.806624
H       -6.552187         3.679825        -2.026250
H       -8.050286         4.400071        -2.631746
H       -6.809747         3.834093        -3.771579
 

