%Mem=61440MB 
%NProc=8 

#P B3LYP/6-31G(d) Integral=Ultrafine SCF(Conver=8,XQC,MaxConventionalCycles=64,MaxCycle=128) NoSymm Test 
   Pop=mk IOp(6/33=2) GFInput GFPrint 

 MEP step - Input generated by PyRED DVE-DMDS-OPLS 

0 1 
C        6.487036        -3.230337        -0.850518
H        7.536127        -2.965401        -0.680573
H        6.127907        -3.787657         0.021071
H        6.449682        -3.892768        -1.723176
C        5.615556        -1.998864        -1.090406
H        5.979418        -1.432046        -1.962688
H        4.586036        -2.306086        -1.303086
O        5.522965        -1.138850         0.041621
C        6.665797        -0.329479         0.265389
H        6.899830         0.262718        -0.634306
H        7.549711        -0.942954         0.506222
C        6.397825         0.608705         1.434591
H        6.082847         0.018472         2.308298
H        7.337457         1.113242         1.690011
O        5.466752         1.637686         1.154322
C        4.085539         1.308577         1.279222
H        3.626231         1.999263         1.999530
H        3.959785         0.286585         1.652719
C        3.402643         1.477786        -0.080894
H        3.826172         0.760360        -0.796540
H        3.595695         2.489961        -0.450620
O        1.988545         1.342210        -0.000000
C        1.522164         0.000000         0.000000
H        1.874198        -0.536518         0.896884
H        1.905132        -0.536049        -0.882044
C       -0.000000         0.000000        -0.000000
H       -0.383274         0.588688         0.839656
H       -0.352386        -1.027883         0.141293
S       -0.820325         0.529851        -1.553416
C       -0.478499         2.336940        -1.647817
H        0.575249         2.488132        -1.893271
H       -1.085847         2.665106        -2.497896
C       -0.808066         3.165991        -0.408614
H       -0.640916         4.220586        -0.659942
H       -0.124479         2.906611         0.405424
S       -2.552308         2.953061         0.143699
C       -2.644103         4.351537         1.331226
H       -1.719731         4.364217         1.923493
H       -3.456328         4.098800         2.020075
C       -2.877906         5.735602         0.712648
H       -2.691542         6.512962         1.463883
H       -2.174792         5.916385        -0.106388
S       -4.544256         6.000569        -0.012397
C       -5.539904         6.342043         1.497554
H       -6.577216         6.225185         1.166375
H       -5.356586         5.551048         2.233884
C       -5.327815         7.726476         2.109628
H       -4.293598         7.870047         2.441449
H       -5.559764         8.513531         1.385478
H       -5.976729         7.859387         2.984814
 

