%Mem=61440MB 
%NProc=8 

#P B3LYP/6-31G(d) Integral=Ultrafine SCF(Conver=8,XQC,MaxConventionalCycles=64,MaxCycle=128) NoSymm Test 
   Pop=mk IOp(6/33=2) GFInput GFPrint 

 MEP step - Input generated by PyRED DVE-DMDS-OPLS 

0 1 
C        1.400770         2.498448        -8.110093
H        0.919420         2.801142        -9.047415
H        1.134184         3.237858        -7.347109
H        2.486016         2.528875        -8.254297
C        0.954763         1.089407        -7.722739
H       -0.136346         1.061930        -7.565821
H        1.190421         0.387918        -8.530126
O        1.620164         0.572041        -6.577344
C        1.202045         1.125266        -5.344542
H        0.104072         1.098598        -5.250150
H        1.516715         2.175800        -5.243210
C        1.828238         0.273199        -4.239991
H        1.452833        -0.751639        -4.320688
H        2.919974         0.243339        -4.368302
O        1.476666         0.742633        -2.945332
C        2.326317         1.761043        -2.429779
H        2.314183         2.649761        -3.081577
H        3.365517         1.400614        -2.370892
C        1.843468         2.174113        -1.045700
H        0.764768         2.376862        -1.079694
H        2.347235         3.106855        -0.770493
O        2.169071         1.269919         0.000000
C        1.532375         0.000000        -0.000000
H        1.906999        -0.489523         0.905023
H        1.856069        -0.598592        -0.862284
C        0.000000         0.000000         0.000000
H       -0.332786        -1.035718         0.139329
H       -0.379288         0.328653        -0.972165
S       -0.855287         1.082904         1.215278
C       -0.080874         0.582099         2.811798
H       -0.880551         0.633150         3.556956
H        0.228681        -0.465536         2.746091
C        1.094229         1.478233         3.211476
H        0.763990         2.515806         3.321634
H        1.862519         1.475957         2.434265
S        1.944243         0.928251         4.750081
C        0.761870         1.462758         6.058268
H        1.063644         0.898672         6.946270
H       -0.252165         1.140372         5.804352
C        0.798731         2.966662         6.334081
H        1.812613         3.289254         6.588271
H        0.497235         3.530471         5.445858
S       -0.380551         3.504600         7.641025
C        0.460268         2.932049         9.175864
H       -0.310816         3.023965         9.948202
H        0.689071         1.864509         9.086405
C        1.702733         3.733375         9.562119
H        1.460280         4.792513         9.692789
H        2.119750         3.354874        10.503999
H        2.486986         3.658189         8.801269
 

