%Mem=61440MB 
%NProc=8 

#P B3LYP/6-31G(d) Integral=Ultrafine SCF(Conver=8,XQC,MaxConventionalCycles=64,MaxCycle=128) NoSymm Test 
   Pop=mk IOp(6/33=2) GFInput GFPrint 

 MEP step - Input generated by PyRED DVE-DMDS-OPLS 

0 1 
C        6.365253        -2.727747         5.977846
H        7.256041        -2.091775         6.001945
H        5.911997        -2.729617         6.975247
H        6.679387        -3.747782         5.734626
C        5.373798        -2.217426         4.945133
H        4.471010        -2.850801         4.927431
H        5.048911        -1.196354         5.201520
O        6.007693        -2.248285         3.672493
C        5.182412        -1.862867         2.588692
H        4.155569        -2.240395         2.713560
H        5.602037        -2.325621         1.689379
C        5.153165        -0.345697         2.397962
H        4.747111         0.156664         3.291326
H        6.180235         0.024354         2.248233
O        4.346753        -0.072563         1.265911
C        4.259771         1.308507         0.958424
H        5.263739         1.714174         0.741328
H        3.848281         1.870998         1.812465
C        3.368409         1.513437        -0.258567
H        3.697684         0.846481        -1.069971
H        3.485199         2.548378        -0.599655
O        1.984813         1.344953        -0.000000
C        1.522588        -0.000000         0.000000
H        1.887564        -0.532270         0.889797
H        1.900761        -0.531060        -0.886574
C        0.000000         0.000000         0.000000
H       -0.379000         0.590843         0.841571
H       -0.353354        -1.028105         0.134742
S       -0.800464         0.584533        -1.546315
C       -0.724342         2.412856        -1.323537
H       -1.265499         2.657126        -0.400174
H        0.318310         2.709567        -1.202719
C       -1.377961         3.161255        -2.489339
H       -1.550074         4.196273        -2.174031
H       -2.362024         2.742563        -2.728999
S       -0.381865         3.327697        -4.027697
C       -0.806357         1.804096        -4.963337
H       -0.711160         0.942850        -4.294120
H       -0.014684         1.713581        -5.714167
C       -2.186162         1.801069        -5.631466
H       -2.420505         0.786201        -5.978563
H       -2.963962         2.073179        -4.910976
S       -2.399499         2.954135        -7.043228
C       -1.546120         2.008742        -8.370976
H       -0.499185         1.847453        -8.090747
H       -2.024720         1.027365        -8.470706
C       -1.624329         2.779207        -9.688779
H       -1.140043         3.757729        -9.604434
H       -1.120341         2.218416       -10.484195
H       -2.664173         2.939624        -9.992598
 

