%Mem=61440MB 
%NProc=8 

#P B3LYP/6-31G(d) Integral=Ultrafine SCF(Conver=8,XQC,MaxConventionalCycles=64,MaxCycle=128) NoSymm Test 
   Pop=mk IOp(6/33=2) GFInput GFPrint 

 MEP step - Input generated by PyRED DVE-DMDS-OPLS 

0 1 
C       -2.487978        -5.249939        -7.115519
H       -1.738770        -5.756070        -7.734257
H       -2.868188        -5.962990        -6.376879
H       -3.321251        -4.943638        -7.755987
C       -1.877681        -4.041391        -6.424836
H       -1.030366        -4.352051        -5.792727
H       -1.483864        -3.327588        -7.167731
O       -2.892903        -3.417349        -5.649293
C       -2.490734        -2.229115        -4.991941
H       -3.396640        -1.638442        -4.820341
H       -1.813978        -1.631682        -5.621997
C       -1.821416        -2.513686        -3.646550
H       -2.513568        -3.081009        -3.003985
H       -0.915074        -3.127511        -3.780037
O       -1.492357        -1.266000        -3.063646
C       -0.881633        -1.378556        -1.793157
H        0.058140        -1.953160        -1.860314
H       -1.537775        -1.902622        -1.079957
C       -0.603785         0.035409        -1.286453
H       -1.548247         0.580372        -1.188363
H        0.016931         0.573072        -2.016875
O        0.000000        -0.000000         0.000000
C        1.422422         0.000000        -0.000000
H        1.827154        -0.558841        -0.855230
H        1.729153        -0.524880         0.910879
C        1.975113         1.428893        -0.000000
H        1.543226         1.998389         0.828880
H        1.699997         1.946958        -0.924557
S        3.810457         1.492350         0.069387
C        4.121222         1.254407         1.870554
H        3.507893         0.432249         2.250217
H        5.165013         0.931549         1.931657
C        3.896259         2.523745         2.693331
H        2.852172         2.845546         2.631462
H        4.507513         3.346874         2.311750
S        4.206322         2.289465         4.494168
C        6.048031         2.321803         4.566421
H        6.460711         1.690676         3.773615
H        6.302720         1.843464         5.515832
C        6.631665         3.734847         4.494804
H        6.341546         4.219896         3.557896
H        6.248693         4.356691         5.310101
S        8.475669         3.776141         4.527635
C        8.832245         4.092589         6.305492
H        9.900455         4.335572         6.312987
H        8.297263         5.000076         6.607621
C        8.544479         2.939325         7.265519
H        7.473705         2.716532         7.320792
H        9.066966         2.028751         6.955889
H        8.877613         3.200736         8.278055
 

