%Mem=61440MB 
%NProc=8 

#P B3LYP/6-31G(d) Integral=Ultrafine SCF(Conver=8,XQC,MaxConventionalCycles=64,MaxCycle=128) NoSymm Test 
   Pop=mk IOp(6/33=2) GFInput GFPrint 

 MEP step - Input generated by PyRED DVE-DMDS-OPLS 

0 1 
C        2.344126        -1.963199         5.097357
H        1.607151        -2.763460         5.230607
H        2.802306        -1.767706         6.074418
H        1.815406        -1.059603         4.775972
C        3.416893        -2.344305         4.078258
H        4.163691        -1.546081         4.008268
H        3.942531        -3.257266         4.402491
O        2.926286        -2.508637         2.753959
C        2.219908        -3.713455         2.496441
H        2.329824        -4.424704         3.328392
H        2.658591        -4.171895         1.600721
C        0.739326        -3.470227         2.238706
H        0.217114        -4.440301         2.150783
H        0.291024        -2.923919         3.083603
O        0.616500        -2.724347         1.045496
C       -0.683697        -2.224088         0.795998
H       -1.082741        -1.719198         1.690763
H       -1.376119        -3.044585         0.534664
C       -0.616786        -1.227335        -0.352502
H       -1.636714        -0.974512        -0.663132
H       -0.102265        -1.687398        -1.209405
O        0.000000         0.000000         0.000000
C        1.424276         0.000000         0.000000
H        1.799901        -0.530052        -0.887656
H        1.809910        -0.522671         0.885177
C        1.927282         1.437762         0.000000
H        3.009903         1.422940         0.165959
H        1.478653         1.998504         0.827431
S        1.666746         2.377301        -1.565796
C        0.218485         3.437226        -1.172503
H        0.389784         3.897192        -0.190331
H        0.259252         4.237310        -1.918213
C       -1.149924         2.751147        -1.181586
H       -1.917098         3.452328        -0.828333
H       -1.131224         1.895566        -0.504137
S       -1.692370         2.100386        -2.819298
C       -2.915185         3.373721        -3.342248
H       -3.628722         3.537501        -2.527391
H       -3.468025         2.912171        -4.166083
C       -2.294273         4.690106        -3.811591
H       -1.710852         5.164686        -3.016389
H       -1.609676         4.505481        -4.644595
S       -3.528662         5.896253        -4.455455
C       -4.263865         6.557332        -2.902015
H       -5.169017         7.075936        -3.235413
H       -4.593643         5.721585        -2.275154
C       -3.359477         7.510797        -2.121817
H       -3.069653         8.367314        -2.738188
H       -3.880384         7.885467        -1.231398
H       -2.442856         7.015393        -1.783442
 

