%Mem=61440MB 
%NProc=8 

#P B3LYP/6-31G(d) Integral=Ultrafine SCF(Conver=8,XQC,MaxConventionalCycles=64,MaxCycle=128) NoSymm Test 
   Pop=mk IOp(6/33=2) GFInput GFPrint 

 MEP step - Input generated by PyRED DVE-DMDS-OPLS 

0 1 
C       -2.197742         3.109001         7.569618
H       -2.729404         3.909163         7.044573
H       -2.931840         2.492376         8.100083
H       -1.530232         3.567177         8.306364
C       -1.403564         2.261856         6.589072
H       -0.877976         1.448034         7.114801
H       -2.079916         1.791683         5.857101
O       -0.458212         3.106788         5.942760
C        0.404067         2.445022         5.033608
H        0.677487         1.442461         5.396042
H        1.321074         3.043197         4.987199
C       -0.219869         2.332483         3.635490
H       -1.120758         1.711158         3.670715
H       -0.514155         3.329801         3.279034
O        0.668447         1.700974         2.715606
C        1.571741         2.596699         2.075752
H        2.139348         3.174105         2.822459
H        1.017858         3.309794         1.446040
C        2.567221         1.827072         1.217500
H        3.013200         1.019438         1.817287
H        3.369685         2.522428         0.940384
O        2.044899         1.327449         0.000000
C        1.529042        -0.000000        -0.000000
H        1.917958        -0.557191         0.862776
H        1.895793        -0.490929        -0.908987
C        0.000000        -0.000000         0.000000
H       -0.366323         0.510673        -0.896500
H       -0.375837         0.541764         0.870081
S       -0.735865        -1.681452        -0.091798
C       -0.289440        -2.409986         1.540959
H       -0.656151        -3.438917         1.468807
H        0.796942        -2.464193         1.654292
C       -0.914967        -1.686780         2.733574
H       -1.997095        -1.585787         2.601373
H       -0.496796        -0.680077         2.825791
S       -0.544847        -2.473104         4.357398
C       -1.585847        -3.987026         4.293079
H       -1.196658        -4.622003         5.094492
H       -1.392910        -4.509335         3.347817
C       -3.096429        -3.794589         4.469901
H       -3.498004        -3.070755         3.752293
H       -3.588719        -4.751298         4.257179
S       -3.658553        -3.331008         6.156607
C       -3.734382        -1.493028         6.058763
H       -2.729164        -1.105133         5.874502
H       -4.374692        -1.217800         5.212732
C       -4.306063        -0.939154         7.363300
H       -5.313552        -1.324238         7.553326
H       -3.673891        -1.203800         8.217651
H       -4.365254         0.154446         7.312327
 

