%Mem=61440MB 
%NProc=8 

#P B3LYP/6-31G(d) Integral=Ultrafine SCF(Conver=8,XQC,MaxConventionalCycles=64,MaxCycle=128) NoSymm Test 
   Pop=mk IOp(6/33=2) GFInput GFPrint 

 MEP step - Input generated by PyRED DVE-DMDS-OPLS 

0 1 
C        0.386514        -5.623389         3.771632
H       -0.567222        -5.584487         4.308434
H        0.176448        -5.582304         2.697804
H        0.855433        -6.588839         3.995361
C        1.317954        -4.481797         4.174964
H        1.533981        -4.522017         5.255316
H        2.272436        -4.573426         3.645452
O        0.821144        -3.192747         3.831126
C       -0.176670        -2.691322         4.705635
H        0.228061        -2.603927         5.730048
H       -1.053862        -3.353708         4.744286
C       -0.623972        -1.317109         4.225100
H       -1.210669        -0.845392         5.022300
H        0.263363        -0.692467         4.043205
O       -1.472629        -1.365353         3.088706
C       -0.812997        -1.397353         1.824613
H       -1.471228        -1.939195         1.137504
H        0.132835        -1.945602         1.886804
C       -0.600688         0.023837         1.291464
H       -0.002463         0.616955         1.999771
H       -1.571002         0.519889         1.186308
O        0.000000         0.000000         0.000000
C        1.424755        -0.000000        -0.000000
H        1.735327        -0.536119        -0.902213
H        1.807275        -0.554440         0.871735
C        2.028066         1.407283        -0.000000
H        3.108118         1.330753         0.172969
H        1.619294         2.003295         0.824601
S        1.898648         2.340228        -1.578143
C        0.113454         2.779059        -1.635643
H       -0.085651         3.007907        -2.687554
H       -0.461106         1.886525        -1.374141
C       -0.300321         3.951805        -0.741100
H        0.054681         3.801424         0.283289
H       -1.394764         4.005391        -0.688380
S        0.346283         5.599001        -1.242409
C       -0.834929         6.045563        -2.578969
H       -1.000521         5.173962        -3.221613
H       -0.319444         6.796551        -3.185196
C       -2.158396         6.604063        -2.056372
H       -2.650003         5.877722        -1.401596
H       -1.976283         7.516227        -1.478730
S       -3.257893         6.999805        -3.482656
C       -4.635824         7.864340        -2.624610
H       -4.215527         8.688328        -2.036333
H       -5.217470         8.314741        -3.436058
C       -5.525358         6.969037        -1.762636
H       -5.960479         6.159672        -2.357234
H       -4.965785         6.518939        -0.935774
H       -6.343966         7.555749        -1.326803
 

