%Mem=61440MB 
%NProc=8 

#P B3LYP/6-31G(d) Integral=Ultrafine SCF(Conver=8,XQC,MaxConventionalCycles=64,MaxCycle=128) NoSymm Test 
   Pop=mk IOp(6/33=2) GFInput GFPrint 

 MEP step - Input generated by PyRED DVE-DMDS-OPLS 

0 1 
C        4.730990         7.725248         2.715700
H        5.811486         7.771114         2.541549
H        4.233048         8.320906         1.943251
H        4.532316         8.187522         3.689744
C        4.207647         6.289682         2.699973
H        4.716348         5.686764         3.470236
H        3.136521         6.280775         2.927675
O        4.323939         5.653450         1.432718
C        5.638023         5.247197         1.090794
H        6.084339         4.654254         1.906183
H        6.291256         6.117770         0.911294
C        5.597294         4.404444        -0.177471
H        5.024017         4.939336        -0.951024
H        6.625228         4.280836        -0.538989
O        5.093284         3.094553         0.007822
C        3.677101         2.978154         0.008121
H        3.246661         3.458350        -0.884776
H        3.231790         3.453109         0.889334
C        3.360976         1.489572        -0.006755
H        3.809312         1.004586         0.875558
H        3.800591         1.021613        -0.902101
O        1.951013         1.349325         0.000000
C        1.525135        -0.000000        -0.000000
H        1.914719        -0.526831         0.887315
H        1.902597        -0.532796        -0.887393
C        0.000000         0.000000         0.000000
H       -0.370701         0.474212        -0.913625
H       -0.377992         0.585829         0.843675
S       -0.721493        -1.687326         0.024113
C       -0.625751        -2.104986         1.816925
H       -0.702689        -3.195771         1.850799
H        0.359695        -1.837513         2.209438
C       -1.736795        -1.456758         2.643991
H       -2.721831        -1.762602         2.277207
H       -1.687641        -0.366273         2.561509
S       -1.638139        -1.773989         4.454910
C       -2.229494        -3.517350         4.591092
H       -2.918083        -3.708564         3.761597
H       -2.814966        -3.565506         5.513600
C       -1.103840        -4.553562         4.642935
H       -0.491379        -4.528516         3.735644
H       -0.438149        -4.338575         5.484212
S       -1.694776        -6.272141         4.920834
C       -2.370143        -6.687436         3.259235
H       -3.209687        -6.024357         3.025132
H       -1.585271        -6.520773         2.512267
C       -2.828787        -8.145393         3.237199
H       -1.997596        -8.825227         3.451081
H       -3.615028        -8.325038         3.978063
H       -3.230568        -8.397878         2.249440
 

