%Mem=61440MB 
%NProc=8 

#P HF/6-31G(d)  Opt=(Tight,MaxCycle=55) GFInput GFPrint SCF(Conver=8,XQC,MaxConventionalCycles=64,MaxCycle=128) Test 

 Optimization step - Input generated by PyRED DVE-DMDS-OPLS 

0 1 
C       -7.835000         0.387000        -1.767000
H       -8.488000        -0.416000        -1.412000
H       -7.956000         1.247000        -1.103000
H       -8.175000         0.673000        -2.768000
C       -6.377000        -0.045000        -1.812000
H       -6.256000        -0.924000        -2.464000
H       -5.760000         0.759000        -2.224000
O       -5.832000        -0.319000        -0.536000
C       -6.270000        -1.522000         0.050000
H       -6.229000        -2.345000        -0.680000
H       -7.307000        -1.438000         0.408000
C       -5.373000        -1.858000         1.223000
H       -5.291000        -0.980000         1.877000
H       -5.843000        -2.665000         1.801000
O       -4.101000        -2.302000         0.803000
C       -2.994000        -1.501000         1.155000
H       -2.123000        -2.162000         1.182000
H       -3.121000        -1.084000         2.164000
C       -2.736000        -0.390000         0.140000
H       -3.591000         0.292000         0.081000
H       -2.603000        -0.840000        -0.848000
O       -1.541000         0.306000         0.451000
C       -1.717000         1.408000         1.319000
H       -2.137000         1.080000         2.283000
H       -2.417000         2.131000         0.876000
C       -0.373000         2.063000         1.569000
H        0.341000         1.332000         1.958000
H       -0.493000         2.832000         2.338000
S        0.360000         2.955000         0.164000
C        0.814000         1.629000        -1.006000
H       -0.091000         1.235000        -1.471000
H        1.401000         2.147000        -1.770000
C        1.606000         0.460000        -0.437000
H        1.883000        -0.191000        -1.272000
H        0.971000        -0.120000         0.237000
S        3.120000         0.995000         0.432000
C        3.923000        -0.631000         0.603000
H        3.165000        -1.363000         0.908000
H        4.620000        -0.535000         1.440000
C        4.654000        -1.136000        -0.640000
H        4.892000        -2.199000        -0.524000
H        4.013000        -1.055000        -1.522000
S        6.179000        -0.232000        -1.058000
C        7.353000        -0.970000         0.127000
H        8.205000        -0.285000         0.133000
H        6.921000        -0.934000         1.133000
C        7.810000        -2.381000        -0.222000
H        6.973000        -3.085000        -0.241000
H        8.287000        -2.402000        -1.205000
H        8.530000        -2.743000         0.520000
 

