%Mem=61440MB 
%NProc=8 

#P HF/6-31G(d)  Opt=(Tight,MaxCycle=55) GFInput GFPrint SCF(Conver=8,XQC,MaxConventionalCycles=64,MaxCycle=128) Test 

 Optimization step - Input generated by PyRED DVE-DMDS-OPLS 

0 1 
C       -8.466000        -2.866000        -0.872000
H       -9.196000        -2.595000        -0.103000
H       -8.772000        -2.405000        -1.815000
H       -8.500000        -3.954000        -0.992000
C       -7.058000        -2.424000        -0.501000
H       -6.754000        -2.871000         0.458000
H       -6.348000        -2.761000        -1.262000
O       -6.906000        -1.018000        -0.445000
C       -7.487000        -0.409000         0.686000
H       -7.160000        -0.914000         1.608000
H       -8.586000        -0.459000         0.645000
C       -7.069000         1.048000         0.741000
H       -7.263000         1.516000        -0.235000
H       -7.684000         1.556000         1.492000
O       -5.732000         1.248000         1.134000
C       -4.766000         1.086000         0.115000
H       -5.044000         1.663000        -0.779000
H       -4.665000         0.038000        -0.184000
C       -3.456000         1.605000         0.671000
H       -3.192000         1.046000         1.582000
H       -3.561000         2.664000         0.950000
O       -2.473000         1.439000        -0.324000
C       -1.199000         1.881000         0.077000
H       -0.863000         1.328000         0.969000
H       -1.219000         2.948000         0.345000
C       -0.249000         1.654000        -1.086000
H       -0.566000         2.255000        -1.941000
H       -0.285000         0.607000        -1.399000
S        1.464000         2.147000        -0.716000
C        2.069000         0.684000         0.194000
H        2.933000         1.029000         0.765000
H        1.319000         0.364000         0.922000
C        2.454000        -0.473000        -0.724000
H        3.227000        -0.163000        -1.432000
H        1.590000        -0.786000        -1.317000
S        3.026000        -1.964000         0.167000
C        4.840000        -1.795000         0.078000
H        5.126000        -1.629000        -0.965000
H        5.229000        -2.776000         0.364000
C        5.431000        -0.726000         0.990000
H        5.068000         0.271000         0.720000
H        5.130000        -0.911000         2.023000
S        7.253000        -0.698000         0.997000
C        7.591000         0.103000        -0.608000
H        7.217000        -0.523000        -1.423000
H        7.058000         1.058000        -0.642000
C        9.090000         0.324000        -0.765000
H        9.479000         0.965000         0.031000
H        9.635000        -0.624000        -0.735000
H        9.302000         0.806000        -1.724000
 

