%Mem=61440MB 
%NProc=8 

#P HF/6-31G(d)  Opt=(Tight,MaxCycle=55) GFInput GFPrint SCF(Conver=8,XQC,MaxConventionalCycles=64,MaxCycle=128) Test 

 Optimization step - Input generated by PyRED DVE-DMDS-OPLS 

0 1 
C       -8.987000        -1.546000        -1.117000
H       -9.865000        -1.602000        -1.769000
H       -8.141000        -1.971000        -1.665000
H       -9.172000        -2.167000        -0.236000
C       -8.732000        -0.104000        -0.704000
H       -8.524000         0.517000        -1.588000
H       -9.618000         0.306000        -0.212000
O       -7.685000         0.036000         0.237000
C       -6.392000        -0.144000        -0.287000
H       -6.243000         0.465000        -1.192000
H       -6.207000        -1.193000        -0.560000
C       -5.415000         0.303000         0.791000
H       -5.574000         1.364000         1.001000
H       -5.607000        -0.256000         1.717000
O       -4.072000         0.156000         0.377000
C       -3.520000        -1.127000         0.604000
H       -4.079000        -1.896000         0.050000
H       -3.567000        -1.381000         1.673000
C       -2.078000        -1.146000         0.135000
H       -2.017000        -0.724000        -0.875000
H       -1.744000        -2.186000         0.081000
O       -1.164000        -0.519000         1.011000
C       -1.277000         0.878000         1.188000
H       -0.447000         1.138000         1.852000
H       -2.210000         1.131000         1.707000
C       -1.219000         1.725000        -0.080000
H       -1.180000         2.777000         0.224000
H       -2.137000         1.595000        -0.659000
S        0.133000         1.379000        -1.254000
C        1.607000         1.456000        -0.178000
H        2.401000         1.894000        -0.787000
H        1.417000         2.154000         0.642000
C        2.026000         0.090000         0.357000
H        2.273000        -0.581000        -0.471000
H        1.200000        -0.379000         0.895000
S        3.414000         0.164000         1.538000
C        4.830000         0.511000         0.440000
H        5.629000         0.836000         1.112000
H        4.606000         1.357000        -0.215000
C        5.276000        -0.696000        -0.378000
H        5.499000        -1.541000         0.276000
H        4.477000        -1.020000        -1.051000
S        6.692000        -0.353000        -1.474000
C        8.073000        -0.259000        -0.285000
H        8.904000         0.145000        -0.871000
H        7.844000         0.485000         0.483000
C        8.464000        -1.591000         0.342000
H        8.732000        -2.320000        -0.428000
H        9.323000        -1.459000         1.008000
H        7.649000        -2.014000         0.936000
 

