%Mem=61440MB 
%NProc=8 

#P HF/6-31G(d)  SCF(Conver=8,XQC,MaxConventionalCycles=64,MaxCycle=128) NoSymm Test 
   Pop=mk IOp(6/33=2) GFInput GFPrint 

 MEP step - Input generated by PyRED DVE-DMDS-OPLS 

0 1 
C       -0.192004        -1.194400        -8.136636
H        0.061286        -1.639646        -9.094118
H       -0.316748        -2.000457        -7.421454
H       -1.141176        -0.679554        -8.239014
C        0.895469        -0.216218        -7.712769
H        1.844906        -0.734153        -7.588229
H        1.031377         0.534221        -8.481067
O        0.580847         0.491056        -6.544757
C        0.710534        -0.203568        -5.342320
H        1.690627        -0.670294        -5.265753
H       -0.035901        -0.989164        -5.255072
C        0.545696         0.810804        -4.222301
H        1.327459         1.554674        -4.300696
H       -0.408614         1.319075        -4.323423
O        0.664938         0.203987        -2.964688
C       -0.526520        -0.252071        -2.384518
H       -1.005511        -0.989688        -3.025919
H       -1.220902         0.573102        -2.245637
C       -0.228537        -0.900924        -1.045762
H        0.595341        -1.596611        -1.159149
H       -1.098414        -1.468882        -0.740336
O        0.000000         0.000000        -0.000000
C        1.165014         0.773330        -0.000000
H        1.095965         1.379264         0.894133
H        1.182866         1.446478        -0.849426
C        2.482251         0.000000         0.000000
H        3.285420         0.717598         0.128875
H        2.641965        -0.477532        -0.957963
S        2.676050        -1.336136         1.218759
C        2.385088        -0.493449         2.808675
H        3.073220        -0.942511         3.512771
H        2.664193         0.548186         2.715815
C        0.946124        -0.628097         3.305483
H        0.688411        -1.671691         3.429235
H        0.254769        -0.223378         2.580767
S        0.621553         0.278975         4.851319
C        1.384043        -0.782683         6.119397
H        1.492694        -0.141921         6.985003
H        2.380703        -1.072553         5.815015
C        0.551142        -2.014808         6.467017
H       -0.445674        -1.725354         6.770445
H        0.443181        -2.655749         5.601444
S        1.308947        -3.078196         7.734804
C        1.023153        -2.149910         9.274761
H        1.658199        -2.640014        10.003197
H        1.398819        -1.139847         9.165329
C       -0.422492        -2.143272         9.762782
H       -0.785193        -3.153713         9.910485
H       -0.492067        -1.612583        10.708234
H       -1.083492        -1.648320         9.060102
 

