%Mem=61440MB 
%NProc=8 

#P HF/6-31G(d)  SCF(Conver=8,XQC,MaxConventionalCycles=64,MaxCycle=128) NoSymm Test 
   Pop=mk IOp(6/33=2) GFInput GFPrint 

 MEP step - Input generated by PyRED DVE-DMDS-OPLS 

0 1 
C       -6.410243        -0.107191         3.184059
H       -6.552840         0.863505         3.646117
H       -6.241878         0.044562         2.123672
H       -7.328973        -0.672811         3.308485
C       -5.241581        -0.865097         3.798524
H       -5.405283        -1.023995         4.862983
H       -5.153381        -1.839892         3.335251
O       -4.009418        -0.227666         3.592765
C       -3.694628         0.799692         4.485128
H       -3.592995         0.399587         5.494539
H       -4.467603         1.562338         4.501428
C       -2.386394         1.440038         4.068505
H       -2.063984         2.113271         4.855204
H       -1.627979         0.669828         3.955033
O       -2.513645         2.205018         2.905405
C       -2.243539         1.572662         1.682016
H       -2.921936         1.982352         0.944621
H       -2.426572         0.507782         1.742258
C       -0.811599         1.862674         1.252851
H       -0.109890         1.509193         2.005059
H       -0.677511         2.932870         1.160845
O       -0.543384         1.291907         0.000000
C        0.000000         0.000000         0.000000
H       -0.367384        -0.500201        -0.885897
H       -0.350278        -0.556869         0.866901
C        1.525391        -0.000000        -0.000000
H        1.873084        -1.012065         0.178468
H        1.904887         0.607079         0.813964
S        2.328165         0.468326        -1.562879
C        2.052737         2.262812        -1.673374
H        2.249056         2.508417        -2.709605
H        1.008476         2.463026        -1.483738
C        2.917099         3.122212        -0.748764
H        2.870363         2.754044         0.267862
H        2.520927         4.131351        -0.728993
S        4.686590         3.195448        -1.166533
C        4.707354         4.459094        -2.474861
H        3.879041         4.291849        -3.152480
H        5.615999         4.284377        -3.036425
C        4.693431         5.889547        -1.941010
H        3.816737         6.057356        -1.329938
H        5.568964         6.058645        -1.327038
S        4.704309         7.057508        -3.339033
C        4.927485         8.647103        -2.484040
H        5.801196         8.578230        -1.845994
H        5.166197         9.351098        -3.272349
C        3.715626         9.135242        -1.695790
H        2.846294         9.223569        -2.337006
H        3.467806         8.462323        -0.882381
H        3.922382        10.110382        -1.263771
 

