%Mem=61440MB 
%NProc=8 

#P HF/6-31G(d)  SCF(Conver=8,XQC,MaxConventionalCycles=64,MaxCycle=128) NoSymm Test 
   Pop=mk IOp(6/33=2) GFInput GFPrint 

 MEP step - Input generated by PyRED DVE-DMDS-OPLS 

0 1 
C       -9.329097        -1.074627         0.000074
H      -10.310512        -0.610672         0.000087
H       -9.244700        -1.703931        -0.878693
H       -9.244676        -1.703928         0.878841
C       -8.242166        -0.017948         0.000057
H       -8.331731         0.621357        -0.877337
H       -8.331706         0.621358         0.877452
O       -6.999142        -0.657561         0.000039
C       -5.901326         0.201033         0.000033
H       -5.906848         0.842484         0.878955
H       -5.906863         0.842491        -0.878885
C       -4.650703        -0.652913         0.000019
H       -4.643135        -1.293232         0.879044
H       -4.643152        -1.293228        -0.879008
O       -3.549757         0.205509         0.000010
C       -2.310113        -0.433667         0.000007
H       -2.197456        -1.064190        -0.879023
H       -2.197452        -1.064190         0.879036
C       -1.241640         0.639408         0.000004
H       -1.353807         1.269675         0.879194
H       -1.353813         1.269675        -0.879186
O       -0.000000         0.000000         0.000000
C        1.097591         0.861450        -0.000000
H        1.077602         1.502131         0.879039
H        1.077602         1.502130        -0.879040
C        2.350044        -0.000000         0.000000
H        2.348536        -0.632838        -0.878387
H        2.348545        -0.632824         0.878397
S        3.834175         1.048207        -0.000015
C        5.118157        -0.239626         0.000006
H        4.998951        -0.861835         0.878123
H        4.998943        -0.861872        -0.878082
C        6.497190         0.413372        -0.000014
H        6.615788         1.035738         0.878161
H        6.615783         1.035690        -0.878225
S        7.780900        -0.875087         0.000016
C        9.269891         0.169802        -0.000021
H        9.261217         0.803311         0.878123
H        9.261213         0.803254        -0.878206
C       10.514737        -0.712766         0.000006
H       10.521665        -1.347012         0.877973
H       10.521659        -1.347073        -0.877919
S       12.003668         0.330489        -0.000037
C       13.292296        -0.952182         0.000002
H       13.167034        -1.576687         0.876775
H       13.167026        -1.576749        -0.876726
C       14.677576        -0.312117        -0.000028
H       15.441075        -1.083152        -0.000006
H       14.823291         0.306405        -0.878622
H       14.823301         0.306466         0.878522
 

