%Mem=61440MB 
%NProc=8 

#P HF/6-31G(d)  SCF(Conver=8,XQC,MaxConventionalCycles=64,MaxCycle=128) NoSymm Test 
   Pop=mk IOp(6/33=2) GFInput GFPrint 

 MEP step - Input generated by PyRED DVE-DMDS-OPLS 

0 1 
C       -6.641209         2.217640        -6.671848
H       -6.910262         1.428964        -7.367642
H       -7.335987         2.196244        -5.839838
H       -6.742576         3.172537        -7.174818
C       -5.219668         2.029974        -6.180098
H       -5.117671         1.066952        -5.683490
H       -4.523633         2.038043        -7.017131
O       -4.916591         3.077567        -5.301323
C       -3.640940         3.051520        -4.731265
H       -3.337849         4.076591        -4.561189
H       -2.916338         2.598288        -5.402485
C       -3.646111         2.309690        -3.404619
H       -4.342761         2.791132        -2.722093
H       -3.973618         1.280071        -3.538522
O       -2.346127         2.345223        -2.896477
C       -2.179926         1.731710        -1.655182
H       -2.440028         0.675320        -1.710917
H       -2.820377         2.189074        -0.904485
C       -0.725722         1.898001        -1.250404
H       -0.493624         2.951751        -1.168325
H       -0.083053         1.476149        -2.017247
O       -0.495474         1.309355         0.000000
C        0.000000         0.000000        -0.000000
H       -0.371401        -0.563632        -0.850484
H       -0.375880        -0.476232         0.896266
C        1.525829        -0.000000        -0.000000
H        1.891586         0.600755         0.822584
H        1.900917         0.448386        -0.911937
S        2.245477        -1.668365         0.062627
C        2.173181        -2.062389         1.840021
H        1.208980        -1.783314         2.242776
H        2.237579        -3.141568         1.890776
C        3.297371        -1.418668         2.649010
H        3.231972        -0.339600         2.597072
H        4.261815        -1.695702         2.245142
S        3.226806        -1.808689         4.426580
C        3.920698        -3.491674         4.497158
H        3.487789        -4.101970         3.715629
H        3.579269        -3.901769         5.437617
C        5.446326        -3.525480         4.420327
H        5.784687        -3.096094         3.486762
H        5.880601        -2.934493         5.216375
S        6.136465        -5.213375         4.487292
C        6.682048        -5.362535         6.217699
H        7.252781        -6.283548         6.234088
H        7.375351        -4.557849         6.432641
C        5.574339        -5.416386         7.264670
H        5.023028        -4.483788         7.313430
H        4.873409        -6.214892         7.050417
H        6.003462        -5.592461         8.247020
 

