%Mem=61440MB 
%NProc=8 

#P HF/6-31G(d)  SCF(Conver=8,XQC,MaxConventionalCycles=64,MaxCycle=128) NoSymm Test 
   Pop=mk IOp(6/33=2) GFInput GFPrint 

 MEP step - Input generated by PyRED DVE-DMDS-OPLS 

0 1 
C       -4.235175         4.294275        -3.184059
H       -4.870285         3.546465        -3.646117
H       -4.172749         4.076379        -2.123672
H       -4.714840         5.260666        -3.308485
C       -2.842471         4.318110        -3.798524
H       -2.897157         4.539597        -4.862983
H       -2.251329         5.098210        -3.335251
O       -2.134990         3.124789        -3.592765
C       -2.412158         2.086649        -4.485128
H       -2.114024         2.372184        -5.494539
H       -3.471752         1.849206        -4.501428
C       -1.641697         0.850564        -4.068505
H       -1.724829         0.108754        -4.855204
H       -0.590446         1.102135        -3.955033
O       -2.154826         0.269112        -2.905405
C       -1.590777         0.662404        -1.682016
H       -2.383196         0.674241        -0.944621
H       -1.181978         1.662582        -1.742258
C       -0.529823        -0.342054        -1.252851
H        0.252596        -0.413915        -2.005059
H       -0.982953        -1.320815        -1.160845
O        0.000000         0.000000        -0.000000
C        1.145196         0.807971        -0.000000
H        1.098529         1.426836         0.885897
H        1.143054         1.465841        -0.866901
C        2.439027        -0.000000         0.000000
H        3.270011         0.674264        -0.178468
H        2.439356        -0.715935        -0.813964
S        2.871875        -0.822447         1.562879
C        1.687752        -2.198635         1.673374
H        1.724176        -2.510943         2.709605
H        0.695963        -1.815331         1.483738
C        1.965693        -3.385412         0.748764
H        2.121063        -3.048378        -0.267862
H        1.095139        -4.031516         0.728993
S        3.427778        -4.384797         1.166533
C        2.776060        -5.467615         2.474861
H        2.162074        -4.887017         3.152480
H        3.639315        -5.800713         3.036425
C        2.006567        -6.673546         1.941010
H        1.174073        -6.351514         1.329938
H        2.659623        -7.280728         1.327038
S        1.397147        -7.669969         3.339033
C        0.744465        -9.136471         2.484040
H        1.522025        -9.540841         1.845994
H        0.574047        -9.860038         3.272349
C       -0.541988        -8.908609         1.695790
H       -1.326138        -8.523060         2.337006
H       -0.395755        -8.206576         0.882381
H       -0.883131        -9.845235         1.263771
 

