%Mem=61440MB 
%NProc=8 

#P HF/6-31G(d)  SCF(Conver=8,XQC,MaxConventionalCycles=64,MaxCycle=128) NoSymm Test 
   Pop=mk IOp(6/33=2) GFInput GFPrint 

 MEP step - Input generated by PyRED DVE-DMDS-OPLS 

0 1 
C       -2.352487         3.596887         7.451587
H       -2.174381         2.602084         7.843929
H       -1.800460         4.310492         8.055237
H       -3.410948         3.813459         7.540731
C       -1.917950         3.680205         6.001851
H       -2.084488         4.682777         5.611734
H       -0.853779         3.471206         5.915792
O       -2.668622         2.754649         5.264118
C       -2.378375         2.677233         3.899148
H       -2.056696         3.638756         3.507003
H       -3.298573         2.409265         3.394108
C       -1.305106         1.629067         3.626071
H       -0.385116         1.897038         4.130176
H       -1.626770         0.667692         4.016559
O       -1.009812         1.545610         2.258661
C       -1.778326         0.644362         1.513833
H       -2.825593         0.942656         1.498209
H       -1.718234        -0.350020         1.949023
C       -1.261029         0.596367         0.090725
H       -1.249702         1.598351        -0.329576
H       -1.941383        -0.006784        -0.500799
O        0.000000         0.000000         0.000000
C        1.100581         0.868340        -0.000000
H        1.075354         1.514549         0.867187
H        1.086404         1.494938        -0.888619
C        2.348033        -0.000000         0.000000
H        2.367131        -0.607135        -0.895955
H        2.326289        -0.677084         0.843742
S        3.894978         0.953798        -0.008296
C        4.056150         1.465598         1.732330
H        4.751794         2.294751         1.715245
H        3.112914         1.851178         2.094277
C        4.566084         0.355962         2.649679
H        5.507162        -0.034881         2.285393
H        3.867341        -0.470345         2.667268
S        4.734798         0.867840         4.389548
C        6.299896         1.794770         4.369844
H        6.278061         2.409382         5.260164
H        6.297908         2.468354         3.520054
C        7.585361         0.964881         4.350378
H        7.586867         0.253628         3.533392
H        8.414368         1.641493         4.174435
S        7.989819         0.094122         5.895585
C        7.334270        -1.582256         5.612654
H        6.262744        -1.532306         5.487431
H        7.768768        -1.974499         4.700441
C        7.694526        -2.477859         6.794536
H        8.768921        -2.545654         6.925082
H        7.263639        -2.102101         7.716081
H        7.309960        -3.479052         6.628432
 

