%Mem=61440MB 
%NProc=8 

#P HF/6-31G(d)  SCF(Conver=8,XQC,MaxConventionalCycles=64,MaxCycle=128) NoSymm Test 
   Pop=mk IOp(6/33=2) GFInput GFPrint 

 MEP step - Input generated by PyRED DVE-DMDS-OPLS 

0 1 
C        1.524629         5.913999        -3.779995
H        0.660489         6.565541        -3.703306
H        2.411523         6.540439        -3.764903
H        1.482274         5.403650        -4.736248
C        1.581428         4.901503        -2.643248
H        2.490690         4.318862        -2.719508
H        1.598966         5.411707        -1.681620
O        0.534274         3.972380        -2.671983
C       -0.714946         4.438175        -2.262003
H       -1.148149         5.104454        -3.005388
H       -0.632428         4.985256        -1.325374
C       -1.638024         3.257218        -2.070079
H       -2.657440         3.615965        -1.926271
H       -1.621628         2.639025        -2.964591
O       -1.218775         2.527380        -0.959839
C       -1.900577         1.328773        -0.744520
H       -1.902310         0.722128        -1.647669
H       -2.937443         1.527283        -0.470174
C       -1.225193         0.560211         0.373465
H       -1.861499        -0.268580         0.660046
H       -1.103144         1.206392         1.238177
O        0.000000         0.000000        -0.000000
C        1.118433         0.844272         0.000000
H        1.101839         1.488340         0.874287
H        1.113441         1.478363        -0.878626
C        2.381582        -0.000000        -0.000000
H        3.229470         0.652398        -0.173243
H        2.351723        -0.712615        -0.815429
S        2.729526        -0.885078         1.556559
C        2.282915        -2.604927         1.178699
H        2.717791        -2.865701         0.219393
H        2.804046        -3.196795         1.921162
C        0.797130        -2.961471         1.151397
H        0.692576        -3.981200         0.794365
H        0.278736        -2.315943         0.458817
S       -0.126742        -2.805477         2.707809
C        0.519832        -4.187592         3.709549
H        0.960105        -4.920256         3.044570
H       -0.330521        -4.660449         4.182015
C        1.510930        -3.740279         4.783800
H        2.361459        -3.231786         4.351274
H        1.031906        -3.031375         5.446592
S        2.079146        -5.094456         5.859717
C        3.327016        -5.930725         4.831099
H        3.477630        -6.890244         5.311321
H        2.909744        -6.136199         3.852374
C        4.657280        -5.192240         4.712894
H        5.097332        -5.032161         5.690102
H        5.353927        -5.773141         4.114624
H        4.542130        -4.224623         4.237034
 

