%Mem=61440MB 
%NProc=8 

#P HF/6-31G(d)  SCF(Conver=8,XQC,MaxConventionalCycles=64,MaxCycle=128) NoSymm Test 
   Pop=mk IOp(6/33=2) GFInput GFPrint 

 MEP step - Input generated by PyRED DVE-DMDS-OPLS 

0 1 
C       -3.796592         3.135001         1.589211
H       -2.955768         3.797872         1.771255
H       -4.693746         3.734970         1.483194
H       -3.918506         2.491591         2.453615
C       -3.557311         2.306339         0.342072
H       -3.438044         2.953966        -0.525644
H       -2.654092         1.717477         0.436516
O       -4.675693         1.474383         0.158524
C       -4.750936         0.766294        -1.039205
H       -4.471778         1.394782        -1.882511
H       -5.791865         0.486902        -1.158930
C       -3.913178        -0.498351        -1.060687
H       -4.066180        -1.043969        -0.132291
H       -4.242859        -1.134249        -1.883693
O       -2.565435        -0.169094        -1.221381
C       -1.680358        -1.238725        -1.109106
H       -1.836109        -1.948532        -1.922005
H       -1.827634        -1.764905        -0.169297
C       -0.264507        -0.715624        -1.170215
H       -0.154366        -0.075360        -2.042781
H        0.418132        -1.555807        -1.271493
O        0.000000         0.000000         0.000000
C        1.147973         0.787743        -0.000000
H        1.091818         1.393062         0.894518
H        1.149125         1.456206        -0.860011
C        2.457054        -0.000000         0.000000
H        3.269999         0.709662         0.098754
H        2.595589        -0.529214        -0.935570
S        2.501248        -1.191454         1.374403
C        4.228379        -1.756700         1.285414
H        4.244190        -2.696155         1.822910
H        4.484208        -1.976900         0.256538
C        5.235146        -0.778490         1.888527
H        4.976796        -0.551824         2.915294
H        5.224934         0.158040         1.346095
S        6.960821        -1.352041         1.809795
C        6.998377        -2.491185         3.230283
H        6.114620        -3.117784         3.204128
H        6.963024        -1.918116         4.148457
C        8.217610        -3.412850         3.210693
H        8.137148        -4.107315         4.039926
H        8.218217        -3.998386         2.299686
S        9.852455        -2.625720         3.265746
C        9.850970        -1.882886         4.925475
H        9.104907        -1.099627         4.973132
H        9.589756        -2.644184         5.652163
C       11.229209        -1.305357         5.237484
H       11.226090        -0.852239         6.223503
H       11.990229        -2.077325         5.221482
H       11.504752        -0.542068         4.518180
 

