%Mem=61440MB 
%NProc=8 

#P HF/6-31G(d)  SCF(Conver=8,XQC,MaxConventionalCycles=64,MaxCycle=128) NoSymm Test 
   Pop=mk IOp(6/33=2) GFInput GFPrint 

 MEP step - Input generated by PyRED DVE-DMDS-OPLS 

0 1 
C       -5.462126         5.055074        -0.676081
H       -4.941705         5.747754        -1.327731
H       -5.168183         4.047128        -0.946360
H       -6.529716         5.159583        -0.842497
C       -5.121457         5.335487         0.774194
H       -5.428561         6.344048         1.049314
H       -5.649488         4.645472         1.430871
O       -3.740567         5.195170         0.944318
C       -3.285864         5.438628         2.240570
H       -3.783219         4.782102         2.951993
H       -3.503206         6.468579         2.526695
C       -1.788506         5.213964         2.314869
H       -1.300263         5.767121         1.516350
H       -1.432027         5.603398         3.261886
O       -1.420369         3.867292         2.283749
C       -1.279711         3.271523         1.023705
H       -0.629647         3.867647         0.387855
H       -2.233013         3.167277         0.523498
C       -0.658351         1.909003         1.250671
H       -1.303087         1.314082         1.893452
H        0.296873         2.026688         1.755126
O       -0.512126         1.299906         0.000000
C        0.000000         0.000000        -0.000000
H       -0.356252        -0.478019        -0.902633
H       -0.388225        -0.560715         0.846558
C        1.527221         0.000000         0.000000
H        1.925150         0.504962         0.871652
H        1.879029         0.537374        -0.871611
S        2.257240        -1.659734        -0.106650
C        2.109858        -2.232700         1.615945
H        2.595830        -1.519517         2.269844
H        1.067487        -2.300095         1.898246
C        2.773653        -3.600864         1.747135
H        3.822989        -3.530226         1.488489
H        2.301765        -4.304034         1.073339
S        2.620580        -4.181530         3.465732
C        3.600794        -5.713664         3.418605
H        3.809611        -5.954833         4.452524
H        4.550195        -5.504006         2.941954
C        2.886202        -6.887018         2.751339
H        1.965768        -7.099356         3.279268
H        2.617728        -6.657487         1.728904
S        3.839187        -8.436614         2.795656
C        5.058097        -8.203616         1.462987
H        5.565299        -7.255882         1.597739
H        5.796209        -8.977856         1.635087
C        4.494729        -8.324552         0.050077
H        3.756098        -7.558193        -0.157631
H        5.293314        -8.216510        -0.678482
H        4.025712        -9.290188        -0.097399
 

