%Mem=61440MB 
%NProc=8 

#P HF/6-31G(d)  SCF(Conver=8,XQC,MaxConventionalCycles=64,MaxCycle=128) NoSymm Test 
   Pop=mk IOp(6/33=2) GFInput GFPrint 

 MEP step - Input generated by PyRED DVE-DMDS-OPLS 

0 1 
C       -4.868738         4.500411        -2.197189
H       -5.457277         4.950056        -1.404301
H       -3.997985         5.123755        -2.370233
H       -5.474658         4.500763        -3.098285
C       -4.441935         3.078899        -1.855692
H       -5.313648         2.457841        -1.657935
H       -3.914596         2.643572        -2.694904
O       -3.553718         3.009935        -0.774520
C       -4.099215         3.214086         0.493730
H       -5.028011         2.659731         0.606712
H       -4.311433         4.268090         0.663301
C       -3.105407         2.737668         1.529530
H       -2.141258         3.193962         1.328057
H       -3.430200         3.063263         2.514869
O       -3.021765         1.341047         1.513769
C       -1.746070         0.770662         1.468300
H       -1.823440        -0.216469         1.905560
H       -1.043310         1.340211         2.072028
C       -1.249425         0.640284         0.033203
H       -1.205395         1.608074        -0.453912
H       -1.946493         0.028289        -0.523994
O        0.000000         0.000000        -0.000000
C        1.117335         0.841279        -0.000000
H        1.120437         1.470378         0.889757
H        1.098494         1.493262        -0.868925
C        2.381100        -0.000000        -0.000000
H        2.366155        -0.694507         0.830000
H        3.233382         0.653909         0.148369
S        2.769168        -0.875038        -1.542762
C        1.517051        -2.190504        -1.664761
H        0.552096        -1.744859        -1.854216
H        1.812556        -2.745266        -2.547221
C        1.380187        -3.138860        -0.476871
H        0.627487        -3.873972        -0.739394
H        1.020148        -2.602729         0.390704
S        2.932271        -4.001559        -0.071758
C        2.293460        -5.257627         1.075933
H        1.560246        -4.787642         1.723807
H        3.129179        -5.538184         1.703979
C        1.674748        -6.498705         0.426994
H        1.111456        -7.050869         1.170765
H        0.971948        -6.213346        -0.345060
S        2.852781        -7.626255        -0.376480
C        3.508336        -8.563864         1.039370
H        4.415102        -9.024247         0.665574
H        3.810547        -7.873682         1.818540
C        2.571157        -9.633330         1.593356
H        1.652109        -9.205054         1.978391
H        2.308602       -10.351376         0.825333
H        3.053286       -10.165316         2.408989
 

