%Mem=61440MB 
%NProc=8 

#P HF/6-31G(d)  SCF(Conver=8,XQC,MaxConventionalCycles=64,MaxCycle=128) NoSymm Test 
   Pop=mk IOp(6/33=2) GFInput GFPrint 

 MEP step - Input generated by PyRED DVE-DMDS-OPLS 

0 1 
C       -6.315812        -3.242907        -0.479427
H       -6.015277        -2.797240         0.461919
H       -7.400363        -3.274080        -0.517642
H       -5.938509        -4.258627        -0.510477
C       -5.765362        -2.440312        -1.641946
H       -6.073692        -2.882205        -2.589053
H       -6.159602        -1.426468        -1.614372
O       -4.370038        -2.437666        -1.549687
C       -3.683843        -1.793391        -2.578248
H       -4.142833        -2.010768        -3.542267
H       -2.681522        -2.201633        -2.584661
C       -3.590616        -0.288699        -2.404751
H       -3.124908         0.138870        -3.292866
H       -4.580241         0.155102        -2.310845
O       -2.826622        -0.007362        -1.272603
C       -2.698150         1.349517        -0.977450
H       -3.677912         1.782183        -0.771878
H       -2.265315         1.888129        -1.818812
C       -1.817660         1.530331         0.243730
H       -2.167781         0.875723         1.037836
H       -1.911879         2.555259         0.584166
O       -0.456302         1.328079         0.000000
C       -0.000000         0.000000         0.000000
H       -0.383391        -0.541432        -0.853439
H       -0.349044        -0.502469         0.901312
C        1.518148         0.000000        -0.000000
H        1.863142        -1.016276         0.155932
H        1.893225         0.592705         0.824385
S        2.330275         0.496621        -1.547639
C        2.021257         2.284691        -1.684493
H        2.555637         2.572271        -2.581931
H        0.967412         2.450657        -1.850506
C        2.463749         3.158562        -0.513908
H        1.885540         2.915823         0.366014
H        2.248759         4.189922        -0.773137
S        4.247748         3.023207        -0.168780
C        4.513940         4.521295         0.823653
H        4.085382         5.373557         0.309388
H        5.586921         4.665030         0.844894
C        3.977133         4.423611         2.249748
H        2.910344         4.244944         2.240590
H        4.454833         3.599788         2.764884
S        4.332107         5.974484         3.137627
C        3.826110         5.548347         4.831628
H        4.335301         4.638110         5.127299
H        4.224048         6.347126         5.446173
C        2.320635         5.423396         5.046736
H        1.897008         4.614706         4.461554
H        2.111002         5.217000         6.092600
H        1.812684         6.340453         4.771485
 

