%Mem=61440MB 
%NProc=8 

#P HF/6-31G(d)  SCF(Conver=8,XQC,MaxConventionalCycles=64,MaxCycle=128) NoSymm Test 
   Pop=mk IOp(6/33=2) GFInput GFPrint 

 MEP step - Input generated by PyRED DVE-DMDS-OPLS 

0 1 
C       -7.493604         7.504007        -0.000074
H       -8.565138         7.677914        -0.000087
H       -7.067439         7.974676         0.878693
H       -7.067422         7.974660        -0.878841
C       -7.196879         6.017418        -0.000057
H       -7.632970         5.541437         0.877337
H       -7.632949         5.541422        -0.877452
O       -5.810254         5.839986        -0.000039
C       -5.392306         4.510436        -0.000033
H       -5.760367         3.985059        -0.878955
H       -5.760383         3.985061         0.878885
C       -3.877956         4.505289        -0.000019
H       -3.508851         5.028574        -0.879044
H       -3.508866         5.028580         0.879008
O       -3.457332         3.174108        -0.000010
C       -2.073738         2.998230        -0.000007
H       -1.623599         3.453890         0.879023
H       -1.623595         3.453887        -0.879036
C       -1.801514         1.508593        -0.000004
H       -2.251104         1.052867        -0.879194
H       -2.251109         1.052870         0.879186
O       -0.416144         1.331776        -0.000000
C        0.000000         0.000000         0.000000
H       -0.379544        -0.516544        -0.879039
H       -0.379544        -0.516543         0.879040
C        1.520111        -0.000000         0.000000
H        1.877498         0.522264         0.878387
H        1.877498         0.522247        -0.878397
S        2.148899        -1.704702         0.000015
C        3.936618        -1.371263        -0.000006
H        4.191008        -0.791056        -0.878123
H        4.191023        -0.791021         0.878082
C        4.702779        -2.690784         0.000014
H        4.447798        -3.270775        -0.878161
H        4.447821        -3.270733         0.878225
S        6.490629        -2.356675        -0.000016
C        7.125301        -4.061397         0.000021
H        6.759143        -4.578444        -0.878123
H        6.759173        -4.578395         0.878206
C        8.651112        -4.039687        -0.000006
H        9.016248        -3.521043        -0.877973
H        9.016278        -3.520989         0.877919
S        9.286660        -5.743029         0.000037
C       11.075283        -5.416475        -0.000002
H       11.325985        -4.830945        -0.876775
H       11.326013        -4.830890         0.876726
C       11.853920        -6.728881         0.000028
H       12.919932        -6.526285         0.000006
H       11.623460        -7.321072         0.878622
H       11.623434        -7.321128        -0.878522
 

