%Mem=61440MB 
%NProc=8 

#P HF/6-31G(d)  SCF(Conver=8,XQC,MaxConventionalCycles=64,MaxCycle=128) NoSymm Test 
   Pop=mk IOp(6/33=2) GFInput GFPrint 

 MEP step - Input generated by PyRED DVE-DMDS-OPLS 

0 1 
C       -5.906160        -3.420138         3.036428
H       -6.830811        -2.920919         2.766927
H       -5.770371        -4.266927         2.372344
H       -6.016705        -3.793805         4.050039
C       -4.705581        -2.486619         2.952925
H       -4.848874        -1.624520         3.602087
H       -3.816841        -3.004591         3.290286
O       -4.424032        -2.060807         1.648074
C       -5.259241        -1.070674         1.125889
H       -5.347182        -0.239534         1.822766
H       -6.258330        -1.462062         0.940868
C       -4.689188        -0.563935        -0.183936
H       -4.489281        -1.405743        -0.841943
H       -5.434161         0.064912        -0.659069
O       -3.548488         0.226089        -0.025531
C       -2.312967        -0.433523        -0.005616
H       -2.202351        -1.066270        -0.883110
H       -2.208762        -1.056233         0.872619
C       -1.243272         0.638550        -0.016229
H       -1.358200         1.282037         0.853375
H       -1.348731         1.257404        -0.904348
O       -0.000000         0.000000         0.000000
C        1.097629         0.860225         0.000000
H        1.071312         1.506113         0.875681
H        1.085449         1.500705        -0.878768
C        2.351106        -0.000000        -0.000000
H        2.376093        -0.597354        -0.902111
H        2.328703        -0.685742         0.836757
S        3.890362         0.966434         0.014887
C        4.095882         1.354516         1.782982
H        4.744678         2.219238         1.815886
H        3.146923         1.658864         2.204078
C        4.694855         0.202414         2.588110
H        5.655081        -0.087518         2.181271
H        4.052780        -0.666293         2.532095
S        4.891883         0.581535         4.363510
C        6.670710         0.941530         4.513166
H        7.228336         0.124192         4.074112
H        6.866924         0.926717         5.577350
C        7.103283         2.285064         3.931558
H        6.923481         2.328494         2.864428
H        6.530609         3.082178         4.387581
S        8.848435         2.690819         4.242088
C        9.697567         1.645769         3.017259
H        9.508722         0.601187         3.231194
H        9.297660         1.865577         2.034059
C       11.198695         1.920057         3.049683
H       11.411978         2.956887         2.815509
H       11.616060         1.700020         4.026072
H       11.704338         1.296874         2.319358
 

