%Mem=61440MB 
%NProc=8 

#P HF/6-31G(d)  SCF(Conver=8,XQC,MaxConventionalCycles=64,MaxCycle=128) NoSymm Test 
   Pop=mk IOp(6/33=2) GFInput GFPrint 

 MEP step - Input generated by PyRED DVE-DMDS-OPLS 

0 1 
C       -6.126228         3.279602        -2.285035
H       -5.867822         2.284396        -2.629010
H       -6.511793         3.202219        -1.274628
H       -6.910397         3.672591        -2.924427
C       -4.909871         4.183556        -2.320110
H       -4.527234         4.269299        -3.335875
H       -5.171339         5.186874        -1.985468
O       -3.927235         3.643142        -1.484311
C       -2.746504         4.383557        -1.417643
H       -2.939442         5.363426        -0.978968
H       -2.333438         4.535878        -2.412398
C       -1.733322         3.645749        -0.566873
H       -0.884692         4.298620        -0.394375
H       -2.174479         3.410623         0.397777
O       -1.246197         2.498067        -1.199927
C       -1.881620         1.279292        -0.905586
H       -1.784642         0.657912        -1.787133
H       -2.936913         1.436509        -0.717182
C       -1.254365         0.554548         0.273866
H       -1.892770        -0.280127         0.541517
H       -1.194939         1.215561         1.137593
O        0.000000         0.000000         0.000000
C        1.096035         0.870765        -0.000000
H        1.076235         1.499335         0.888518
H        1.081601         1.518330        -0.866555
C        2.343666         0.000000         0.000000
H        2.358774        -0.603808        -0.898849
H        2.313569        -0.659725         0.856523
S        3.830934         1.047212         0.047422
C        5.143229        -0.175924        -0.249237
H        4.894052        -0.767171        -1.121215
H        6.016987         0.412782        -0.496789
C        5.429275        -1.077900         0.948684
H        4.544819        -1.642946         1.213057
H        5.700170        -0.486011         1.813576
S        6.703002        -2.346726         0.662838
C        8.260149        -1.393654         0.692381
H        8.977527        -2.005412         1.222632
H        8.111451        -0.500104         1.283717
C        8.806313        -1.065328        -0.697512
H        8.923701        -1.981075        -1.261352
H        8.124437        -0.438104        -1.256644
S       10.447463        -0.268894        -0.666336
C       10.057762         1.498221        -0.863010
H       11.018298         1.957534        -1.064623
H        9.456199         1.623510        -1.755884
C        9.399482         2.176730         0.333970
H        9.295021         3.241259         0.144392
H        8.407524         1.782113         0.524605
H        9.993221         2.046107         1.231232
 

