%Mem=61440MB 
%NProc=8 

#P HF/6-31G(d)  SCF(Conver=8,XQC,MaxConventionalCycles=64,MaxCycle=128) NoSymm Test 
   Pop=mk IOp(6/33=2) GFInput GFPrint 

 MEP step - Input generated by PyRED DVE-DMDS-OPLS 

0 1 
C       -2.359275         2.084723        -7.635169
H       -1.693663         1.358701        -8.090901
H       -3.332587         1.988930        -8.107398
H       -1.971007         3.075240        -7.843622
C       -2.474463         1.873181        -6.132769
H       -3.151449         2.603771        -5.707753
H       -2.884997         0.889213        -5.916830
O       -1.243460         2.050186        -5.481755
C       -0.413573         0.925500        -5.390041
H        0.608944         1.281761        -5.404475
H       -0.550911         0.272027        -6.249148
C       -0.632713         0.121345        -4.117551
H       -1.687515        -0.119744        -3.997694
H       -0.088537        -0.812801        -4.205785
O       -0.141250         0.746555        -2.967865
C       -0.946091         1.741965        -2.387317
H       -1.958985         1.371361        -2.243323
H       -0.992398         2.611722        -3.031674
C       -0.357672         2.147212        -1.050017
H       -0.819187         3.077288        -0.742600
H        0.704862         2.330762        -1.164481
O       -0.612815         1.255066         0.000000
C        0.000000        -0.000000         0.000000
H       -0.324012        -0.590923        -0.849181
H       -0.365427        -0.489280         0.893833
C        1.527580         0.000000         0.000000
H        1.906899         0.337329        -0.955735
H        1.857870        -1.025813         0.124041
S        2.369530         1.047965         1.225437
C        1.683186         0.468199         2.811383
H        1.393155        -0.570230         2.716499
H        2.501106         0.501398         3.519373
C        0.511612         1.315739         3.306272
H       -0.293116         1.308482         2.585763
H        0.816704         2.348083         3.417905
S       -0.208916         0.713718         4.867236
C        0.967458         1.327578         6.114980
H        1.979200         1.134376         5.783631
H        0.803561         0.719952         6.995114
C        0.767094         2.801043         6.464140
H        0.853564         3.430209         5.588447
H       -0.229655         2.947790         6.858815
S        1.896860         3.401994         7.758722
C        3.449850         3.671741         6.846985
H        4.205023         3.761441         7.618720
H        3.693243         2.783403         6.276489
C        3.463356         4.911099         5.956881
H        2.720664         4.850863         5.169026
H        3.264380         5.804779         6.536561
H        4.435528         5.018370         5.483981
 

