%Mem=61440MB 
%NProc=8 

#P HF/6-31G(d)  SCF(Conver=8,XQC,MaxConventionalCycles=64,MaxCycle=128) NoSymm Test 
   Pop=mk IOp(6/33=2) GFInput GFPrint 

 MEP step - Input generated by PyRED DVE-DMDS-OPLS 

0 1 
C       -4.392897        -0.266654        -7.451587
H       -3.678381         0.448064        -7.843929
H       -4.347516        -1.167713        -8.055237
H       -5.385344         0.160304        -7.540731
C       -4.083858        -0.583290        -6.001851
H       -4.793318        -1.310993        -5.611734
H       -3.091051        -1.019726        -5.915792
O       -4.171184         0.605211        -5.264118
C       -3.888739         0.502929        -3.899148
H       -4.174050        -0.470005        -3.507003
H       -4.490887         1.248577        -3.394108
C       -2.409043         0.750030        -3.626071
H       -1.807068         0.004501        -4.130176
H       -2.123804         1.722835        -4.016559
O       -2.119005         0.649823        -2.258661
C       -2.234864         1.828568        -1.513833
H       -3.264811         2.182058        -1.498209
H       -1.617446         2.610362        -1.949023
C       -1.782879         1.572423        -0.090725
H       -2.346023         0.743588         0.329576
H       -1.996685         2.456142         0.500799
O       -0.407198         1.341449         0.000000
C        0.000000         0.000000         0.000000
H       -0.389888        -0.515954        -0.867187
H       -0.369616        -0.506171         0.888619
C        1.519918         0.000000         0.000000
H        1.882453         0.487387         0.895955
H        1.888895         0.568130        -0.843742
S        2.244640        -1.666597         0.008296
C        2.084525        -2.178729        -1.732330
H        2.181763        -3.256671        -1.715245
H        1.090092        -1.956311        -2.094277
C        3.136989        -1.559340        -2.649679
H        4.132657        -1.776205        -2.285393
H        3.035581        -0.481962        -2.667268
S        2.983019        -2.075843        -4.389548
C        3.737990        -3.730761        -4.369844
H        3.368937        -4.222721        -5.260164
H        3.351534        -4.282460        -3.520054
C        5.267139        -3.784036        -4.350378
H        5.674720        -3.201146        -3.533392
H        5.560982        -4.812974        -4.174435
S        6.096564        -3.300442        -5.895585
C        6.516258        -1.550059        -5.612654
H        5.608281        -0.978884        -5.487431
H        7.096957        -1.476363        -4.700441
C        7.323597        -1.020822        -6.794536
H        8.244124        -1.578989        -6.925082
H        6.755279        -1.083051        -7.716081
H        7.579959         0.020599        -6.628432
 

