%Mem=61440MB 
%NProc=8 

#P HF/6-31G(d)  SCF(Conver=8,XQC,MaxConventionalCycles=64,MaxCycle=128) NoSymm Test 
   Pop=mk IOp(6/33=2) GFInput GFPrint 

 MEP step - Input generated by PyRED DVE-DMDS-OPLS 

0 1 
C       -1.719980         5.956661         5.612539
H       -2.779262         5.729674         5.654617
H       -1.301221         5.839114         6.607169
H       -1.605749         6.990930         5.308764
C       -1.020042         5.038978         4.629872
H        0.045812         5.258336         4.597716
H       -1.128087         4.001841         4.941341
O       -1.583535         5.239409         3.363216
C       -1.067089         4.454290         2.329428
H       -0.016045         4.229175         2.491169
H       -1.145330         5.026629         1.414077
C       -1.852139         3.161951         2.174205
H       -1.812145         2.572006         3.088115
H       -2.896487         3.395001         1.977854
O       -1.292954         2.451581         1.109976
C       -1.934890         1.248096         0.807843
H       -2.971073         1.438405         0.528120
H       -1.936474         0.588898         1.673576
C       -1.231269         0.563170        -0.346440
H       -1.116153         1.264239        -1.168570
H       -1.852453        -0.256567        -0.687792
O        0.000000         0.000000         0.000000
C        1.115600         0.845840         0.000000
H        1.111960         1.477949         0.881682
H        1.100087         1.490783        -0.873676
C        2.376944        -0.000000         0.000000
H        2.365964        -0.684310         0.840152
H        3.234089         0.652254         0.124035
S        2.697264        -0.933636        -1.525566
C        1.685450        -2.428228        -1.280864
H        1.997411        -2.890381        -0.350192
H        0.648237        -2.147992        -1.189980
C        1.872221        -3.443739        -2.409271
H        1.457742        -4.387430        -2.075440
H        2.923242        -3.619211        -2.605111
S        1.003672        -3.083157        -3.970109
C        2.253737        -2.209278        -4.961139
H        2.734087        -1.462261        -4.343624
H        1.690586        -1.675508        -5.716033
C        3.315187        -3.098480        -5.613108
H        4.126977        -2.476530        -5.976466
H        3.743581        -3.774324        -4.884095
S        2.742936        -4.144718        -6.983207
C        2.705920        -2.942283        -8.347927
H        2.016754        -2.140700        -8.110653
H        3.693340        -2.510362        -8.464935
C        2.275049        -3.631274        -9.639903
H        1.282762        -4.057680        -9.543494
H        2.256572        -2.914492       -10.454578
H        2.961336        -4.427448        -9.906286
 

