%Mem=61440MB 
%NProc=8 

#P HF/6-31G(d)  SCF(Conver=8,XQC,MaxConventionalCycles=64,MaxCycle=128) NoSymm Test 
   Pop=mk IOp(6/33=2) GFInput GFPrint 

 MEP step - Input generated by PyRED DVE-DMDS-OPLS 

0 1 
C       -4.563537         5.951471         1.924812
H       -3.796181         5.925331         1.159648
H       -5.520233         6.112806         1.441327
H       -4.363952         6.787861         2.587657
C       -4.578025         4.649121         2.700937
H       -3.620881         4.500551         3.196691
H       -5.343465         4.676844         3.476154
O       -4.845015         3.609389         1.805096
C       -4.958132         2.333179         2.355073
H       -5.526742         1.741980         1.649120
H       -5.512449         2.366758         3.292755
C       -3.625792         1.646763         2.593327
H       -2.981554         2.254463         3.226183
H       -3.803908         0.707479         3.118028
O       -3.012155         1.407444         1.365320
C       -1.752548         0.816694         1.442592
H       -1.799838        -0.143109         1.953964
H       -1.065478         1.452261         1.999400
C       -1.261478         0.608782         0.019493
H       -1.249096         1.558635        -0.507042
H       -1.945987        -0.049107        -0.499234
O        0.000000         0.000000         0.000000
C        1.098986         0.864065         0.000000
H        1.098510         1.509532         0.873735
H        1.071257         1.503562        -0.879287
C        2.349648        -0.000000        -0.000000
H        2.322827        -0.686877        -0.835612
H        2.373821        -0.596758         0.902617
S        3.891720         0.961054        -0.016063
C        4.092779         1.355919        -1.783051
H        3.150354         1.686968        -2.198118
H        4.765752         2.203175        -1.805173
C        4.661431         0.197955        -2.600521
H        3.995977        -0.654929        -2.564209
H        5.612723        -0.121975        -2.194605
S        4.854236         0.568798        -4.370829
C        6.326346         1.643790        -4.360418
H        7.126672         1.129262        -3.843383
H        6.117743         2.563498        -3.831662
C        6.728095         1.962667        -5.798616
H        6.905580         1.054293        -6.359059
H        5.925579         2.492211        -6.296887
S        8.172455         3.059362        -5.923721
C        9.565862         1.936257        -5.588687
H       10.404769         2.597634        -5.407393
H        9.385633         1.401902        -4.663804
C        9.897827         0.969265        -6.721276
H        9.079882         0.286342        -6.921885
H       10.118604         1.506685        -7.635983
H       10.766153         0.372549        -6.456348
 

