%Mem=61440MB 
%NProc=8 

#P HF/6-31G(d)  SCF(Conver=8,XQC,MaxConventionalCycles=64,MaxCycle=128) NoSymm Test 
   Pop=mk IOp(6/33=2) GFInput GFPrint 

 MEP step - Input generated by PyRED DVE-DMDS-OPLS 

0 1 
C       -5.446896         0.538216        -1.589211
H       -5.068229        -0.463280        -1.771255
H       -6.524947         0.486716        -1.483194
H       -5.219613         1.152367        -2.453615
C       -4.814614         1.124865        -0.342072
H       -5.046339         0.508464         0.525644
H       -3.737093         1.163720        -0.436516
O       -5.343921         2.414347        -0.158524
C       -5.043301         3.059854         1.039205
H       -5.128158         2.377412         1.882511
H       -5.791145         3.835948         1.158930
C       -3.673434         3.711491         1.060687
H       -3.523211         4.257880         0.132291
H       -3.628047         4.426331         1.883693
O       -2.688413         2.734478         1.221381
C       -1.378552         3.194625         1.109106
H       -1.146027         3.883113         1.922005
H       -1.233444         3.721407         0.169297
C       -0.435120         2.016403         1.170215
H       -0.670867         1.411017         2.042781
H        0.582984         2.384328         1.271493
O       -0.577458         1.266856         0.000000
C       -0.000000         0.000000        -0.000000
H       -0.360217        -0.489702        -0.894518
H       -0.343672        -0.573353         0.860011
C        1.527819        -0.000000         0.000000
H        1.858473        -1.027214        -0.098754
H        1.919383         0.382017         0.935570
S        2.180000         0.998087        -1.374403
C        3.951297         0.591898        -1.285414
H        4.449227         1.388699        -1.822910
H        4.284034         0.648666        -0.256538
C        4.309560        -0.765351        -1.888527
H        3.971329        -0.826360        -2.915294
H        3.817936        -1.562532        -1.346095
S        6.083892        -1.163672        -1.809795
C        6.703413        -0.206984        -3.230283
H        6.269258         0.785570        -3.204128
H        6.377647        -0.679778        -4.148457
C        8.223299        -0.045910        -3.210693
H        8.512422         0.590614        -4.039926
H        8.525720         0.455482        -2.299686
S        9.218238        -1.563272        -3.265746
C        8.833961        -2.198988        -4.925475
H        7.790864        -2.485438        -4.973132
H        9.002670        -1.412004        -5.652163
C        9.717103        -3.404452        -5.237484
H        9.480803        -3.791089        -6.223503
H       10.767194        -3.135388        -5.221482
H        9.559645        -4.200530        -4.518180
 

