%Mem=61440MB 
%NProc=8 

#P HF/6-31G(d)  SCF(Conver=8,XQC,MaxConventionalCycles=64,MaxCycle=128) NoSymm Test 
   Pop=mk IOp(6/33=2) GFInput GFPrint 

 MEP step - Input generated by PyRED DVE-DMDS-OPLS 

0 1 
C       -7.489412        -2.056761         3.039062
H       -7.317665        -2.102656         1.969050
H       -7.050657        -2.939050         3.492176
H       -8.562595        -2.084731         3.203020
C       -6.899540        -0.797518         3.659903
H       -7.325853         0.090734         3.196179
H       -7.141876        -0.762404         4.714473
O       -5.501244        -0.749150         3.590029
C       -4.952043        -0.396729         2.357285
H       -5.366597         0.550478         2.014914
H       -5.157421        -1.141814         1.593673
C       -3.448272        -0.289778         2.555543
H       -3.228678         0.447593         3.322008
H       -3.070046        -1.244518         2.895376
O       -2.789458         0.014711         1.357662
C       -2.660981         1.372822         1.048572
H       -2.190162         1.907212         1.869975
H       -3.636366         1.823020         0.869556
C       -1.819238         1.533556        -0.202460
H       -1.917486         2.555316        -0.550601
H       -2.198286         0.873618        -0.979272
O       -0.452555         1.326310         0.000000
C        0.000000        -0.000000         0.000000
H       -0.347951        -0.503981        -0.901758
H       -0.381053        -0.541846         0.854343
C        1.518444        -0.000000        -0.000000
H        1.889034         0.592779        -0.827857
H        1.865797        -1.016956        -0.144243
S        2.312889         0.552009         1.538884
C        2.202372         2.367897         1.414059
H        2.622890         2.669854         0.462856
H        1.168921         2.673115         1.437848
C        2.974600         2.991041         2.573400
H        4.006317         2.664632         2.578246
H        2.542182         2.678877         3.516354
S        2.900485         4.806469         2.626766
C        3.879852         5.311976         1.180588
H        3.797200         6.391704         1.167507
H        3.408273         4.945173         0.276900
C        5.353312         4.907169         1.163091
H        5.451382         3.829563         1.146418
H        5.788817         5.286659         0.244429
S        6.283856         5.602931         2.563980
C        7.987194         5.449796         1.947112
H        8.061615         5.948540         0.986972
H        8.582634         6.023468         2.647690
C        8.518875         4.022022         1.858493
H        7.959101         3.428547         1.143781
H        9.556686         4.030487         1.537126
H        8.463806         3.528100         2.821660
 

