%Mem=61440MB 
%NProc=8 

#P HF/6-31G(d)  SCF(Conver=8,XQC,MaxConventionalCycles=64,MaxCycle=128) NoSymm Test 
   Pop=mk IOp(6/33=2) GFInput GFPrint 

 MEP step - Input generated by PyRED DVE-DMDS-OPLS 

0 1 
C       -2.479489        -4.440638         3.779995
H       -3.559981        -4.502130         3.703306
H       -2.090240        -5.454292         3.764903
H       -2.231106        -3.992803         4.736248
C       -1.869633        -3.630422         2.643248
H       -0.789914        -3.651287         2.719508
H       -2.138567        -4.064346         1.681620
O       -2.223922        -2.276066         2.671983
C       -3.521348        -1.969144         2.262003
H       -4.251753        -2.282356         3.005388
H       -3.756751        -2.469836         1.325374
C       -3.632540        -0.474364         2.070079
H       -4.679424        -0.206144         1.926271
H       -3.275385         0.030485         2.964591
O       -2.878417        -0.100556         0.959839
C       -2.779207         1.274824         0.744520
H       -2.443541         1.780145         1.647669
H       -3.751556         1.685960         0.470174
C       -1.790618         1.538494        -0.373465
H       -1.859085         2.581131        -0.660046
H       -2.048223         0.933445        -1.238177
O       -0.460701         1.323421         0.000000
C        0.000000         0.000000         0.000000
H       -0.371699        -0.526251        -0.874287
H       -0.356509        -0.524403         0.878626
C        1.519322        -0.000000        -0.000000
H        1.861716        -1.013559         0.173243
H        1.890490         0.609053         0.815429
S        2.300427         0.542496        -1.556559
C        2.884822         2.220538        -1.178699
H        3.391283         2.195686        -0.219393
H        3.646980         2.423024        -1.921162
C        1.847683         3.342600        -1.151397
H        2.327412         4.248492        -0.794365
H        1.057983         3.093981        -0.458817
S        0.992902         3.726295        -2.707809
C        2.298483         4.516076        -3.709549
H        3.071656         4.880551        -3.044570
H        1.854271         5.381737        -4.182015
C        2.873905         3.593443        -4.783800
H        3.298462         2.698056        -4.351274
H        2.081719         3.270255        -5.446592
S        4.098816         4.403540        -5.859717
C        5.600989         4.405376        -4.831099
H        6.259403         5.119416        -5.311321
H        5.368253         4.808079        -3.852374
C        6.296588         3.052193        -4.712894
H        6.573489         2.674573        -5.690102
H        7.198575         3.148029        -4.114624
H        5.663159         2.311714        -4.237034
 

