%Mem=61440MB 
%NProc=8 

#P HF/6-31G(d)  SCF(Conver=8,XQC,MaxConventionalCycles=64,MaxCycle=128) NoSymm Test 
   Pop=mk IOp(6/33=2) GFInput GFPrint 

 MEP step - Input generated by PyRED DVE-DMDS-OPLS 

0 1 
C       -0.174019         2.383942         8.136636
H        0.269830         2.639671         9.094118
H        0.126499         3.142214         7.421454
H       -1.253212         2.420505         8.239014
C        0.268545         0.989820         7.712769
H        1.349531         0.955786         7.588229
H        0.005813         0.273858         8.481067
O       -0.360855         0.539177         6.544757
C        0.102659         1.072540         5.342320
H        1.184155         0.978826         5.265753
H       -0.143308         2.127920         5.255072
C       -0.553052         0.281235         4.222301
H       -0.255494        -0.756049         4.300696
H       -1.633347         0.326069         4.323423
O       -0.143001         0.744163         2.964688
C       -0.939580         1.740667         2.384518
H       -0.979203         2.619269         3.025919
H       -1.956164         1.380619         2.245637
C       -0.354106         2.149353         1.045762
H        0.708594         2.332176         1.159149
H       -0.816712         3.079546         0.740336
O       -0.613146         1.256722        -0.000000
C        0.000000         0.000000         0.000000
H       -0.366319        -0.487579        -0.894133
H       -0.325408        -0.589539         0.849426
C        1.527466         0.000000        -0.000000
H        1.856785        -1.025464        -0.128875
H        1.906965         0.330947         0.957963
S        2.371056         1.054123        -1.218759
C        1.693501         0.474726        -2.808675
H        2.514277         0.513593        -3.512771
H        1.406830        -0.564852        -2.715815
C        0.520756         1.319366        -3.305483
H        0.826866         2.349803        -3.429235
H       -0.280349         1.320370        -2.580767
S       -0.218379         0.701461        -4.851319
C        0.976666         1.230964        -6.119397
H        0.745957         0.623384        -6.985003
H        1.982911         0.976347        -5.815015
C        0.882204         2.715193        -6.467017
H       -0.123963         2.970248        -6.770445
H        1.113600         3.322578        -5.601444
S        2.074085         3.248560        -7.734804
C        1.357651         2.592729        -9.274761
H        2.153426         2.693865       -10.003197
H        1.170235         1.531490        -9.165329
C        0.107613         3.318910        -9.762782
H        0.306401         4.373911        -9.910485
H       -0.221065         2.896486       -10.708234
H       -0.712998         3.226732        -9.060102
 

