%Mem=61440MB 
%NProc=8 

#P HF/6-31G(d)  SCF(Conver=8,XQC,MaxConventionalCycles=64,MaxCycle=128) NoSymm Test 
   Pop=mk IOp(6/33=2) GFInput GFPrint 

 MEP step - Input generated by PyRED DVE-DMDS-OPLS 

0 1 
C        5.338949        -3.035513         3.779828
H        4.878804        -3.836789         4.349205
H        6.346505        -3.348512         3.523813
H        5.407278        -2.159230         4.415342
C        4.559748        -2.710175         2.512940
H        5.080945        -1.950599         1.947471
H        4.471990        -3.592436         1.882038
O        3.282084        -2.184458         2.767978
C        2.317148        -3.092993         3.203218
H        2.473275        -3.353643         4.248104
H        2.357936        -4.007199         2.616291
C        0.945170        -2.475886         3.057132
H        0.221176        -3.093331         3.588292
H        0.946173        -1.491541         3.519486
O        0.611543        -2.406656         1.703744
C       -0.635535        -1.840217         1.415683
H       -1.350746        -2.080955         2.201220
H       -0.982799        -2.292117         0.495914
C       -0.584525        -0.333805         1.226006
H       -0.052493         0.130247         2.051505
H       -1.601507         0.051253         1.235124
O        0.000000         0.000000         0.000000
C        1.131341         0.825741         0.000000
H        1.105416         1.504690         0.847574
H        1.083979         1.427349        -0.898412
C        2.413002         0.000000         0.000000
H        2.451964        -0.591302        -0.906204
H        2.438833        -0.688125         0.832020
S        3.920987         1.014031         0.007196
C        4.041565         1.454874         1.769473
H        3.212094         2.101539         2.033060
H        3.968758         0.553350         2.363160
C        5.338125         2.200412         2.091128
H        5.242465         2.626689         3.082296
H        5.486437         3.028415         1.409131
S        6.847253         1.179568         2.152655
C        7.600982         1.403122         0.508611
H        6.854948         1.267693        -0.260205
H        8.302864         0.583300         0.422657
C        8.319720         2.740989         0.348308
H        7.616428         3.560366         0.427829
H        9.051320         2.877060         1.133116
S        9.100926         2.963327        -1.280467
C       10.580110         1.907580        -1.173188
H       10.291029         0.906123        -0.878506
H       10.934029         1.840022        -2.195101
C       11.688786         2.441910        -0.271223
H       11.369900         2.510714         0.762866
H       12.547863         1.777641        -0.306094
H       12.005856         3.427613        -0.591050
 

