%Mem=61440MB 
%NProc=8 

#P HF/6-31G(d)  SCF(Conver=8,XQC,MaxConventionalCycles=64,MaxCycle=128) NoSymm Test 
   Pop=mk IOp(6/33=2) GFInput GFPrint 

 MEP step - Input generated by PyRED DVE-DMDS-OPLS 

0 1 
C       -1.926221         0.167711         7.635169
H       -0.984800         0.457320         8.090901
H       -2.717380         0.742672         8.107398
H       -2.092315        -0.883140         7.843622
C       -1.918582         0.408460         6.132769
H       -2.872126         0.120664         5.707753
H       -1.775008         1.464925         5.916830
O       -0.946209        -0.366903         5.481755
C        0.338576         0.183514         5.390041
H        1.040430        -0.641024         5.404475
H        0.550646         0.816692         6.249148
C        0.556299         0.988054         4.117551
H       -0.231662         1.729571         3.997694
H        1.498240         1.518624         4.205785
O        0.664006         0.200131         2.967865
C       -0.533782        -0.251437         2.387317
H       -1.220080         0.580606         2.243323
H       -1.013672        -0.978298         3.031674
C       -0.231175        -0.898655         1.050017
H       -1.099750        -1.467526         0.742600
H        0.592562        -1.594448         1.164481
O        0.000000         0.000000         0.000000
C        1.163480         0.772688         0.000000
H        1.182879         1.446333         0.849181
H        1.095740         1.379601        -0.893833
C        2.481225         0.000000        -0.000000
H        2.637810        -0.482862         0.955735
H        3.285028         0.717834        -0.124041
S        2.677436        -1.329892        -1.225437
C        2.378630        -0.482594        -2.811383
H        2.653703         0.559896        -2.716499
H        3.067405        -0.924958        -3.519373
C        0.939282        -0.621102        -3.306272
H        0.248765        -0.207790        -2.585763
H        0.680280        -1.665962        -3.417905
S        0.622245         0.262684        -4.867236
C        1.326522        -0.861893        -6.114980
H        2.297014        -1.206994        -5.783631
H        1.492491        -0.254829        -6.995114
C        0.408366        -2.031608        -6.464140
H        0.164709        -2.618088        -5.588447
H       -0.525694        -1.654017        -6.858815
S        1.078966        -3.121474        -7.758722
C        2.282187        -4.139709        -6.846985
H        2.888254        -4.599073        -7.618720
H        2.941489        -3.496510        -6.276489
C        1.666939        -5.215655        -5.956881
H        1.056735        -4.788021        -5.169026
H        1.043249        -5.885929        -6.536561
H        2.451309        -5.799941        -5.483981
 

