%chk=IsoP_rdkit_151_gaussian.chk
%nproc=2
%mem=4000Mb
#p opt pm3

Conformer number 151. Energy MM = 23.712 kcal/mol

0 1
C  -0.6527    -0.4110    0.6012
H  -0.7502    -1.4583    0.9178
H  -0.3471    0.1422    1.4991
C  -1.9956    0.1209    0.1293
C  -2.0724    1.6168    -0.0232
H  -1.5218    1.9387    -0.9124
H  -1.6338    2.1093    0.8515
H  -3.0959    1.9890    -0.1073
C  -3.0216    -0.7258    -0.0890
H  -2.8591    -1.7906    0.0781
C  -4.4009    -0.3989    -0.5666
H  -4.5163    0.6344    -0.8991
H  -5.1251    -0.5896    0.2311
H  -4.6536    -1.0424    -1.4157
C  4.0682    -1.0187    0.8263
H  4.3100    -0.8190    1.8754
H  4.9197    -0.7154    0.2084
H  3.9451    -2.1011    0.7138
C  2.8334    -0.2569    0.4206
C  2.9576    1.2363    0.5491
H  2.0164    1.7657    0.3838
H  3.6902    1.6162    -0.1703
H  3.2959    1.4998    1.5571
C  1.7327    -0.9085    -0.0030
H  1.7548    -1.9979    -0.0367
C  0.4344    -0.3095    -0.4749
H  0.5694    0.7289    -0.7929
H  0.1183    -0.8544    -1.3739

