%chk=IsoP_rdkit_067_gaussian.chk
%nproc=2
%mem=4000Mb
#p opt pm3

Conformer number 067. Energy MM = 23.486 kcal/mol

0 1
C  -0.6992    -1.4041    -0.3310
H  -0.9206    -2.4584    -0.5443
H  -0.3411    -0.9985    -1.2836
C  -1.9886    -0.7333    0.1057
C  -2.8186    -1.5231    1.0864
H  -3.0674    -2.5046    0.6697
H  -2.2719    -1.6698    2.0229
H  -3.7609    -1.0213    1.3310
C  -2.4232    0.4616    -0.3426
H  -3.3780    0.8377    0.0241
C  -1.7395    1.3900    -1.2961
H  -2.3377    1.4906    -2.2069
H  -1.6486    2.3803    -0.8380
H  -0.7358    1.0692    -1.5807
C  3.0612    -0.0547    -0.4196
H  4.0134    -0.2034    0.0998
H  3.2428    0.5731    -1.2987
H  2.7240    -1.0255    -0.7894
C  2.0724    0.6127    0.4952
C  2.4324    2.0262    0.8719
H  3.4008    2.0466    1.3825
H  1.6942    2.4795    1.5419
H  2.4970    2.6529    -0.0236
C  0.9385    0.0492    0.9558
H  0.2877    0.6441    1.5975
C  0.4318    -1.3468    0.7064
H  1.2423    -2.0061    0.3791
H  0.0926    -1.7639    1.6625

