%chk=Model01_EVOH.chk
%nprocshared=8
%mem=4GB
#p opt 6-31g(d,p) pop=mk geom=connectivity m062x

EVOH model CC(O)CC

0 1
 C                 -3.25500000    0.97600000   -0.03100000
 H                 -3.64000000    1.97400000   -0.01900000
 H                 -3.58000000    0.47900000   -0.92100000
 H                 -3.61300000    0.44400000    0.82500000
 C                 -1.71600000    1.02000000   -0.00200000
 H                 -1.39000000    1.51700000    0.88800000
 H                 -1.35700000    1.55200000   -0.85800000
 C                 -1.16000000   -0.41600000   -0.02000000
 O                 -1.63900000   -1.12600000    1.12500000
 H                 -2.59800000   -1.15400000    1.10700000
 H                 -1.48600000   -0.91300000   -0.91000000
 C                  0.37900000   -0.37200000    0.01000000
 H                  0.73700000    0.16000000   -0.84700000
 H                  0.70400000    0.12500000    0.90000000
 C                  0.93400000   -1.80800000   -0.00800000
 H                  0.60900000   -2.30500000   -0.89800000
 H                  2.00400000   -1.77700000    0.01200000
 H                  0.57600000   -2.34000000    0.84800000

 1 2 1.0 3 1.0 4 1.0 5 1.0
 2
 3
 4
 5 6 1.0 7 1.0 8 1.0
 6
 7
 8 11 1.0 12 1.0 9 1.0
 9 10 1.0
 10
 11
 12 13 1.0 14 1.0 15 1.0
 13
 14
 15 16 1.0 17 1.0 18 1.0
 16
 17
 18

