%Mem=61440MB 
%NProc=8 

#P HF/6-31G(d)  Opt=(Tight,MaxCycle=55) GFInput GFPrint SCF(Conver=8,XQC,MaxConventionalCycles=64,MaxCycle=128) Test 

 Optimization step - Input generated by PyRED DVE-DMDS-OPLS 

0 1 
C        8.663849         1.353441         2.094696
H        9.039061         1.998590         1.308379
H        7.674897         1.698142         2.374991
H        9.317652         1.442835         2.956622
C        8.608425        -0.084466         1.617898
H        9.604298        -0.434894         1.348383
H        8.239003        -0.735273         2.409188
O        7.762061        -0.154841         0.506947
C        7.628877        -1.429705        -0.043765
H        7.267674        -2.134894         0.702395
H        8.595757        -1.786348        -0.401330
C        6.658350        -1.392222        -1.207702
H        6.943248        -0.595122        -1.889950
H        6.728893        -2.333758        -1.740723
O        5.322744        -1.262062        -0.821388
C        4.845296         0.035673        -0.596950
H        5.070057         0.679060        -1.444174
H        5.289370         0.476702         0.285180
C        3.344349        -0.073648        -0.425880
H        3.117301        -0.723642         0.415990
H        2.910394        -0.519545        -1.316744
O        2.851897         1.215858        -0.199549
C        1.479291         1.321945         0.038641
H        1.329484         2.224160         0.616340
H        1.132367         0.483982         0.638010
C        0.691000         1.423048        -1.265497
H        0.844788         0.552944        -1.891899
H        1.038899         2.284833        -1.820961
S       -1.092122         1.669852        -1.023458
C       -1.645513        -0.024170        -0.647426
H       -1.341665        -0.683226        -1.450987
H       -1.188186        -0.370467         0.270018
C       -3.165355        -0.034949        -0.507189
H       -3.625452         0.287979        -1.432946
H       -3.466310         0.644364         0.279634
S       -3.722032        -1.724905        -0.122038
C       -5.530380        -1.528086        -0.162152
H       -5.928303        -2.530973        -0.243590
H       -5.802457        -1.002363        -1.068852
C       -6.107669        -0.845022         1.075912
H       -5.857018        -1.419772         1.957862
H       -5.689825         0.143142         1.214028
S       -7.924337        -0.740110         1.065628
C       -8.245561         0.654916        -0.059873
H       -7.710098         0.501317        -0.989012
H       -9.300655         0.575179        -0.292885
C       -7.942506         2.032184         0.522894
H       -6.890955         2.147788         0.761436
H       -8.202800         2.804620        -0.195300
H       -8.511905         2.201980         1.429059
 

