%Mem=61440MB 
%NProc=8 

#P HF/6-31G(d)  Opt=(Tight,MaxCycle=55) GFInput GFPrint SCF(Conver=8,XQC,MaxConventionalCycles=64,MaxCycle=128) Test 

 Optimization step - Input generated by PyRED DVE-DMDS-OPLS 

0 1 
C       -7.445000         3.821000         0.502000
H       -6.409000         3.939000         0.173000
H       -8.097000         4.248000        -0.265000
H       -7.582000         4.382000         1.431000
C       -7.766000         2.356000         0.710000
H       -7.120000         1.935000         1.494000
H       -8.808000         2.230000         1.047000
O       -7.575000         1.689000        -0.519000
C       -7.936000         0.330000        -0.513000
H       -8.052000         0.040000        -1.562000
H       -8.904000         0.185000        -0.007000
C       -6.906000        -0.584000         0.126000
H       -6.679000        -0.263000         1.155000
H       -7.323000        -1.603000         0.188000
O       -5.740000        -0.572000        -0.659000
C       -4.703000        -1.360000        -0.132000
H       -5.010000        -2.413000        -0.034000
H       -4.419000        -1.005000         0.872000
C       -3.529000        -1.262000        -1.094000
H       -3.242000        -0.208000        -1.219000
H       -3.836000        -1.644000        -2.071000
O       -2.432000        -2.044000        -0.672000
C       -1.586000        -1.413000         0.264000
H       -2.109000        -1.187000         1.203000
H       -1.215000        -0.459000        -0.142000
C       -0.433000        -2.363000         0.538000
H        0.054000        -2.639000        -0.401000
H       -0.815000        -3.285000         0.982000
S        0.782000        -1.691000         1.714000
C        1.782000        -0.622000         0.624000
H        1.130000        -0.019000        -0.012000
H        2.298000         0.068000         1.297000
C        2.787000        -1.399000        -0.221000
H        2.270000        -2.103000        -0.878000
H        3.452000        -1.986000         0.419000
S        3.777000        -0.351000        -1.335000
C        4.876000         0.474000        -0.131000
H        5.340000        -0.291000         0.499000
H        4.306000         1.147000         0.514000
C        5.938000         1.268000        -0.882000
H        6.503000         0.620000        -1.558000
H        5.467000         2.038000        -1.499000
S        7.080000         2.166000         0.216000
C        8.159000         0.821000         0.812000
H        8.709000         1.267000         1.646000
H        7.543000         0.022000         1.238000
C        9.126000         0.273000        -0.229000
H        8.598000        -0.180000        -1.073000
H        9.768000         1.066000        -0.620000
H        9.762000        -0.501000         0.214000
 

