%Mem=61440MB 
%NProc=8 

#P HF/6-31G(d)  Opt=(Tight,MaxCycle=55) GFInput GFPrint SCF(Conver=8,XQC,MaxConventionalCycles=64,MaxCycle=128) Test 

 Optimization step - Input generated by PyRED DVE-DMDS-OPLS 

0 1 
C        8.423610         3.028055        -0.787163
H        9.233689         2.688749        -0.150394
H        8.617134         2.683123        -1.797150
H        8.437262         4.113905        -0.787347
C        7.068579         2.523764        -0.308208
H        6.881240         2.850108         0.713343
H        6.285094         2.936277        -0.931069
O        6.931421         1.132243        -0.398164
C        7.583429         0.380926         0.582171
H        7.342480         0.757582         1.574260
H        8.663829         0.430864         0.456311
C        7.152326        -1.068711         0.481741
H        7.282053        -1.415368        -0.540306
H        7.796772        -1.660930         1.122174
O        5.845682        -1.292195         0.921256
C        4.822201        -1.159234        -0.025743
H        5.026188        -1.774174        -0.899148
H        4.715216        -0.134296        -0.354360
C        3.545748        -1.631065         0.638892
H        3.344737        -1.026825         1.520928
H        3.656587        -2.663847         0.961289
O        2.510464        -1.509316        -0.292289
C        1.256444        -1.901500         0.175052
H        0.969258        -1.300481         1.035858
H        1.271471        -2.941326         0.493074
C        0.267641        -1.720013        -0.965351
H        0.549217        -2.362177        -1.789733
H        0.304007        -0.700921        -1.327343
S       -1.435886        -2.174210        -0.523505
C       -2.042213        -0.671143         0.308464
H       -2.875018        -0.993999         0.918353
H       -1.285651        -0.296148         0.984828
C       -2.480818         0.422096        -0.664576
H       -3.254140         0.054515        -1.326748
H       -1.649317         0.724136        -1.287014
S       -3.078276         1.935749         0.163987
C       -4.888583         1.793337         0.027109
H       -5.145103         1.612171        -1.008815
H       -5.262995         2.776314         0.281637
C       -5.520255         0.751124         0.946486
H       -5.167797        -0.245857         0.712416
H       -5.247623         0.956479         1.973526
S       -7.338290         0.746472         0.909728
C       -7.677078        -0.117897        -0.655984
H       -7.283921         0.456410        -1.485554
H       -7.172153        -1.076939        -0.641335
C       -9.180818        -0.315878        -0.826975
H       -9.591786        -0.908688        -0.017636
H       -9.701121         0.635309        -0.848871
H       -9.382187        -0.831160        -1.760435
 

