%Mem=61440MB 
%NProc=8 

#P HF/6-31G(d)  Opt=(Tight,MaxCycle=55) GFInput GFPrint SCF(Conver=8,XQC,MaxConventionalCycles=64,MaxCycle=128) Test 

 Optimization step - Input generated by PyRED DVE-DMDS-OPLS 

0 1 
C       10.701000        -1.198000         0.784000
H       10.295000        -1.767000         1.625000
H       11.154000        -1.903000         0.082000
H       11.479000        -0.528000         1.160000
C        9.603000        -0.409000         0.102000
H        9.156000         0.309000         0.806000
H       10.009000         0.172000        -0.741000
O        8.636000        -1.326000        -0.371000
C        7.580000        -0.743000        -1.099000
H        7.163000        -1.524000        -1.740000
H        7.940000         0.068000        -1.747000
C        6.479000        -0.216000        -0.188000
H        6.125000        -1.035000         0.454000
H        6.859000         0.581000         0.469000
O        5.459000         0.286000        -1.023000
C        4.398000         0.924000        -0.349000
H        3.923000         1.584000        -1.081000
H        4.771000         1.551000         0.474000
C        3.380000        -0.077000         0.195000
H        3.852000        -0.732000         0.934000
H        3.013000        -0.709000        -0.626000
O        2.315000         0.568000         0.860000
C        1.280000         1.023000         0.014000
H        0.885000         0.187000        -0.584000
H        1.632000         1.790000        -0.689000
C        0.196000         1.605000         0.904000
H        0.594000         2.462000         1.453000
H       -0.113000         0.865000         1.647000
S       -1.242000         2.215000        -0.028000
C       -2.160000         0.665000        -0.326000
H       -2.840000         0.893000        -1.151000
H       -1.479000        -0.112000        -0.682000
C       -2.935000         0.181000         0.894000
H       -3.617000         0.958000         1.248000
H       -2.253000        -0.039000         1.719000
S       -3.841000        -1.376000         0.608000
C       -5.256000        -0.803000        -0.392000
H       -5.670000        -1.715000        -0.831000
H       -4.908000        -0.184000        -1.223000
C       -6.317000        -0.067000         0.418000
H       -6.665000        -0.687000         1.248000
H       -5.903000         0.845000         0.856000
S       -7.731000         0.501000        -0.583000
C       -8.622000        -1.061000        -0.895000
H       -9.361000        -0.799000        -1.657000
H       -7.943000        -1.784000        -1.356000
C       -9.309000        -1.655000         0.328000
H      -10.018000        -0.944000         0.760000
H       -9.856000        -2.563000         0.051000
H       -8.590000        -1.929000         1.104000
 

