%Mem=61440MB 
%NProc=8 

#P HF/6-31G(d)  SCF(Conver=8,XQC,MaxConventionalCycles=64,MaxCycle=128) NoSymm Test 
   Pop=mk IOp(6/33=2) GFInput GFPrint 

 MEP step - Input generated by PyRED DVE-DMDS-OPLS 

0 1 
C       -7.550539        -0.966946        -1.924855
H       -6.904344        -1.381623        -1.159695
H       -8.429358        -0.555887        -1.441366
H       -7.861750        -1.768520        -2.587707
C       -6.822185         0.112794        -2.700973
H       -5.950254        -0.309021        -3.196731
H       -7.467702         0.525080        -3.476186
O       -6.450848         1.119979        -1.805123
C       -5.818495         2.234271        -2.355092
H       -5.950270         3.043878        -1.649136
H       -6.293637         2.521731        -3.292775
C       -4.332153         2.041693        -2.593340
H       -4.147533         1.175519        -3.226196
H       -3.944791         2.915726        -3.118038
O       -3.691260         1.889790        -1.365329
C       -2.319139         1.659843        -1.442597
H       -1.812476         2.476393        -1.953965
H       -2.115123         0.746394        -1.999407
C       -1.796939         1.551761        -0.019496
H       -2.326668         0.763239         0.507034
H       -1.986158         2.482118         0.499233
O       -0.413028         1.335585        -0.000000
C        0.000000         0.000000        -0.000000
H       -0.367288        -0.530781        -0.873734
H       -0.386315        -0.510378         0.879288
C        1.520120         0.000000         0.000000
H        1.888488         0.580365         0.835612
H        1.879217         0.477237        -0.902616
S        2.242560        -1.667241         0.016059
C        2.183538        -2.106397         1.783048
H        1.219996        -1.843072         2.198119
H        2.255625        -3.185998         1.805172
C        3.309603        -1.476925         2.600514
H        3.246902        -0.396968         2.564200
H        4.274121        -1.754438         2.194595
S        3.257443        -1.891624         4.370823
C        3.857559        -3.612837         4.360413
H        4.808484        -3.644436         3.843376
H        3.163150        -4.250944         3.831661
C        4.006842        -4.103549         5.798613
H        4.669204        -3.457078         6.359052
H        3.045579        -4.083060         6.296887
S        4.571796        -5.826843         5.923717
C        6.356600        -5.694855         5.588682
H        6.670867        -6.715842         5.407378
H        6.512053        -5.152763         4.663804
C        7.179378        -5.087977         6.721276
H        6.894602        -4.061178         6.921900
H        7.055545        -5.655640         7.635976
H        8.232967        -5.090598         6.456346
 

