%Mem=61440MB 
%NProc=8 

#P HF/6-31G(d)  SCF(Conver=8,XQC,MaxConventionalCycles=64,MaxCycle=128) NoSymm Test 
   Pop=mk IOp(6/33=2) GFInput GFPrint 

 MEP step - Input generated by PyRED DVE-DMDS-OPLS 

0 1 
C       -1.720019         5.956721         5.612482
H       -2.779308         5.729765         5.654542
H       -1.301283         5.839175         6.607121
H       -1.605752         6.990981         5.308694
C       -1.020089         5.039003         4.629841
H        0.045772         5.258332         4.597699
H       -1.128168         4.001874         4.941325
O       -1.583556         5.239429         3.363172
C       -1.067098         4.454298         2.329399
H       -0.016059         4.229177         2.491160
H       -1.145319         5.026631         1.414042
C       -1.852155         3.161965         2.174172
H       -1.812177         2.572025         3.088086
H       -2.896499         3.395020         1.977805
O       -1.292960         2.451585         1.109955
C       -1.934896         1.248100         0.807823
H       -2.971078         1.438409         0.528091
H       -1.936488         0.588905         1.673559
C       -1.231267         0.563166        -0.346451
H       -1.116146         1.264230        -1.168584
H       -1.852449        -0.256573        -0.687803
O        0.000000         0.000000         0.000000
C        1.115600         0.845840         0.000000
H        1.111958         1.477948         0.881683
H        1.100086         1.490783        -0.873675
C        2.376945        -0.000000         0.000000
H        2.365965        -0.684312         0.840150
H        3.234089         0.652254         0.124034
S        2.697261        -0.933635        -1.525568
C        1.685461        -2.428235        -1.280855
H        1.997448        -2.890396        -0.350194
H        0.648249        -2.148004        -1.189942
C        1.872209        -3.443733        -2.409278
H        1.457754        -4.387433        -2.075441
H        2.923228        -3.619190        -2.605151
S        1.003606        -3.083148        -3.970083
C        2.253624        -2.209239        -4.961145
H        2.733975        -1.462215        -4.343642
H        1.690440        -1.675482        -5.716022
C        3.315076        -3.098417        -5.613147
H        4.126841        -2.476447        -5.976525
H        3.743506        -3.774252        -4.884147
S        2.742811        -4.144666        -6.983232
C        2.705715        -2.942227        -8.347944
H        2.016534        -2.140663        -8.110643
H        3.693118        -2.510278        -8.464986
C        2.274818        -3.631225        -9.639909
H        1.282546        -4.057659        -9.543466
H        2.256292        -2.914439       -10.454580
H        2.961117        -4.427378        -9.906319
 

