%Mem=61440MB 
%NProc=8 

#P HF/6-31G(d)  SCF(Conver=8,XQC,MaxConventionalCycles=64,MaxCycle=128) NoSymm Test 
   Pop=mk IOp(6/33=2) GFInput GFPrint 

 MEP step - Input generated by PyRED DVE-DMDS-OPLS 

0 1 
C       -6.287180         2.535889         4.507836
H       -7.003771         1.745278         4.316805
H       -5.386432         2.087658         4.911328
H       -6.702797         3.209068         5.251448
C       -5.974710         3.284728         3.227012
H       -6.877847         3.743545         2.825049
H       -5.267068         4.086723         3.427883
O       -5.451812         2.374119         2.304600
C       -5.153114         2.879523         1.039138
H       -5.924367         3.577127         0.713462
H       -5.152731         2.036369         0.360988
C       -3.800208         3.561686         0.955394
H       -3.702103         4.027714        -0.025630
H       -3.717235         4.352467         1.699818
O       -2.801481         2.609456         1.141580
C       -1.505816         3.117580         1.145556
H       -1.358082         3.774316         2.003361
H       -1.311638         3.694978         0.243775
C       -0.526239         1.969531         1.222872
H       -0.822028         1.303974         2.029454
H        0.462886         2.362940         1.451328
O       -0.523979         1.294085        -0.000000
C        0.000000         0.000000         0.000000
H       -0.372871        -0.471877        -0.898917
H       -0.371198        -0.566592         0.849563
C        1.527827         0.000000        -0.000000
H        1.909478         0.416522         0.924225
H        1.897678         0.617904        -0.809740
S        2.258182        -1.659279        -0.114041
C        2.070636        -2.019480        -1.891379
H        1.025284        -2.029912        -2.166274
H        2.559874        -1.236911        -2.457771
C        2.692484        -3.379935        -2.196944
H        2.164833        -4.156691        -1.658144
H        3.724791        -3.413420        -1.872597
S        2.584857        -3.844098        -3.952476
C        3.973513        -2.922175        -4.687103
H        3.976358        -1.910506        -4.303188
H        3.752226        -2.857041        -5.744164
C        5.327497        -3.600056        -4.485938
H        5.545487        -3.745165        -3.436274
H        5.313198        -4.581052        -4.942231
S        6.706201        -2.713361        -5.276425
C        7.047655        -1.366833        -4.098960
H        7.658219        -0.667274        -4.657234
H        6.124526        -0.851942        -3.860879
C        7.775007        -1.796430        -2.828209
H        7.974424        -0.930319        -2.203492
H        7.187165        -2.494379        -2.242346
H        8.719448        -2.271485        -3.065983
 

