%Mem=61440MB 
%NProc=8 

#P HF/6-31G(d)  SCF(Conver=8,XQC,MaxConventionalCycles=64,MaxCycle=128) NoSymm Test 
   Pop=mk IOp(6/33=2) GFInput GFPrint 

 MEP step - Input generated by PyRED DVE-DMDS-OPLS 

0 1 
C       -0.173999         2.383946         8.136634
H        0.269853         2.639674         9.094115
H        0.126520         3.142219         7.421451
H       -1.253191         2.420512         8.239015
C        0.268561         0.989823         7.712767
H        1.349546         0.955786         7.588222
H        0.005830         0.273862         8.481065
O       -0.360845         0.539182         6.544756
C        0.102665         1.072544         5.342319
H        1.184162         0.978828         5.265748
H       -0.143301         2.127923         5.255069
C       -0.553049         0.281239         4.222301
H       -0.255492        -0.756046         4.300696
H       -1.633343         0.326073         4.323426
O       -0.142999         0.744164         2.964687
C       -0.939578         1.740669         2.384517
H       -0.979201         2.619271         3.025918
H       -1.956163         1.380621         2.245636
C       -0.354105         2.149354         1.045762
H        0.708595         2.332177         1.159147
H       -0.816711         3.079546         0.740335
O       -0.613145         1.256721        -0.000000
C        0.000000         0.000000         0.000000
H       -0.366320        -0.487580        -0.894133
H       -0.325407        -0.589539         0.849425
C        1.527467         0.000000        -0.000000
H        1.856785        -1.025464        -0.128877
H        1.906966         0.330946         0.957962
S        2.371056         1.054122        -1.218759
C        1.693503         0.474727        -2.808676
H        2.514279         0.513593        -3.512771
H        1.406832        -0.564851        -2.715817
C        0.520759         1.319367        -3.305485
H        0.826871         2.349803        -3.429239
H       -0.280346         1.320374        -2.580769
S       -0.218379         0.701460        -4.851319
C        0.976670         1.230951        -6.119400
H        0.745953         0.623374        -6.985005
H        1.982912         0.976322        -5.815020
C        0.882224         2.715181        -6.467019
H       -0.123942         2.970247        -6.770443
H        1.113631         3.322563        -5.601447
S        2.074106         3.248532        -7.734812
C        1.357650         2.592718        -9.274767
H        2.153421         2.693838       -10.003207
H        1.170211         1.531484        -9.165333
C        0.107624         3.318927        -9.762780
H        0.306434         4.373923        -9.910483
H       -0.221068         2.896511       -10.708230
H       -0.712985         3.226766        -9.060096
 

