%Mem=61440MB 
%NProc=8 

#P HF/6-31G(d)  SCF(Conver=8,XQC,MaxConventionalCycles=64,MaxCycle=128) NoSymm Test 
   Pop=mk IOp(6/33=2) GFInput GFPrint 

 MEP step - Input generated by PyRED DVE-DMDS-OPLS 

0 1 
C       -6.192532        -0.506149         0.676270
H       -6.125953        -1.370016         1.327878
H       -5.402899         0.185830         0.946556
H       -7.148973        -0.020480         0.842741
C       -6.056018        -0.925649        -0.774028
H       -6.857081        -1.611072        -1.049154
H       -6.130450        -0.059939        -1.430663
O       -4.816133        -1.549513        -0.944223
C       -4.563589        -1.999151        -2.240503
H       -4.630151        -1.178168        -2.951889
H       -5.300457        -2.750854        -2.526638
C       -3.180153        -2.614495        -2.314876
H       -3.065714        -3.343412        -1.516389
H       -3.088888        -3.134456        -3.261916
O       -2.145898        -1.676749        -2.283751
C       -1.707050        -1.249974        -1.023706
H       -1.479315        -2.102079        -0.387856
H       -2.454888        -0.649648        -0.523500
C       -0.450704        -0.435026        -1.250671
H       -0.674594         0.413202        -1.893454
H        0.291532        -1.047716        -1.755124
O        0.000000         0.000000         0.000000
C        1.130561         0.820889         0.000000
H        1.087085         1.415471         0.902635
H        1.104574         1.502392        -0.846558
C        2.418407         0.000000        -0.000000
H        2.482545        -0.639699        -0.871654
H        2.426227        -0.642250         0.871607
S        3.926119         1.007197         0.106662
C        4.109805         1.569604        -1.615924
H        4.136242         0.707003        -2.269840
H        3.267050         2.186738        -1.898206
C        5.404967         2.366505        -1.747111
H        6.251854         1.742890        -1.488490
H        5.385027         3.213088        -1.073294
S        5.587989         2.938474        -3.465696
C        7.238113         3.703551        -3.418571
H        7.543821         3.794696        -4.452491
H        7.926001         3.016420        -2.941943
C        7.266250         5.077076        -2.751275
H        6.604228         5.750899        -3.279182
H        6.916491         5.027812        -1.728838
S        8.902799         5.871514        -2.795588
C        9.805414         5.019806        -1.462952
H        9.723666         3.948003        -1.597725
H       10.843997         5.275923        -1.635061
C        9.395387         5.424583        -0.050025
H        8.360602         5.175392         0.157695
H       10.010724         4.904195         0.678514
H        9.518958         6.490957         0.097472
 

