%Mem=61440MB 
%NProc=8 

#P HF/6-31G(d)  SCF(Conver=8,XQC,MaxConventionalCycles=64,MaxCycle=128) NoSymm Test 
   Pop=mk IOp(6/33=2) GFInput GFPrint 

 MEP step - Input generated by PyRED DVE-DMDS-OPLS 

0 1 
C        5.628302         0.967037        -3.779863
H        5.675452         1.889826        -4.349254
H        6.644813         0.684465        -3.523860
H        5.211135         0.193386        -4.415358
C        4.797095         1.115584        -2.512964
H        4.823851         0.194783        -1.947483
H        5.201169         1.904780        -1.882077
O        3.438313         1.365632        -2.767982
C        3.119215         2.651987        -3.203227
H        3.391625         2.786536        -4.248115
H        3.648637         3.398414        -2.616305
C        1.631654         2.876286        -3.057138
H        1.357444         3.787445        -3.588301
H        1.099377         2.048265        -3.519488
O        1.313705         2.998785        -1.703751
C       -0.041416         3.198039        -1.415686
H       -0.512265         3.787770        -2.201223
H       -0.088585         3.766004        -0.495918
C       -0.814413         1.904071        -1.226004
H       -0.618504         1.225822        -2.051505
H       -1.877871         2.131178        -1.235118
O       -0.503825         1.306882         0.000000
C        0.000000         0.000000        -0.000000
H       -0.389511        -0.556708        -0.847574
H       -0.365645        -0.480083         0.898412
C        1.524632        -0.000000        -0.000000
H        1.877635         0.475971         0.906204
H        1.919036         0.564471        -0.832021
S        2.243099        -1.669157        -0.007192
C        2.105699        -2.105053        -1.769468
H        1.058182        -2.199422        -2.033054
H        2.532761        -1.307772        -2.363156
C        2.791849        -3.434000        -2.091119
H        2.480562        -3.740535        -3.082287
H        2.468077        -4.210372        -1.409120
S        4.613366        -3.393189        -2.152645
C        5.125899        -3.989333        -0.508598
H        4.572107        -3.471427         0.260217
H        6.159944        -3.680304        -0.422647
C        5.005501        -5.503258        -0.348289
H        3.970512        -5.811150        -0.427809
H        5.546812        -6.013885        -1.133096
S        5.541793        -6.113262         1.280486
C        7.357041        -6.026902         1.173202
H        7.656425        -5.028480         0.878508
H        7.691151        -6.161786         2.195113
C        7.999630        -7.076551         0.271244
H        7.694293        -6.961693        -0.762845
H        9.081571        -6.983423         0.306106
H        7.732312        -8.076890         0.591084
 

