%Mem=61440MB 
%NProc=8 

#P HF/6-31G(d)  SCF(Conver=8,XQC,MaxConventionalCycles=64,MaxCycle=128) NoSymm Test 
   Pop=mk IOp(6/33=2) GFInput GFPrint 

 MEP step - Input generated by PyRED DVE-DMDS-OPLS 

0 1 
C       -3.352146         7.493152        -3.035218
H       -4.397072         7.604637        -2.765908
H       -2.761195         8.114322        -2.370822
H       -3.231646         7.864101        -4.048694
C       -2.890456         6.044101        -2.952049
H       -3.496260         5.414547        -3.601526
H       -1.864513         5.968417        -3.289215
O       -2.899518         5.533313        -1.647352
C       -4.148521         5.189341        -1.125533
H       -4.691151         4.553993        -1.822705
H       -4.750887         6.077301        -0.940392
C       -3.965497         4.448610         0.184127
H       -3.324469         5.029401         0.842417
H       -4.935657         4.351524         0.659041
O       -3.471977         3.151809         0.025485
C       -2.080035         2.996564         0.005621
H       -1.630827         3.455674         0.883133
H       -1.641729         3.451047        -0.872592
C       -1.804676         1.507348         0.016221
H       -2.263539         1.041823        -0.853391
H       -2.241807         1.056759         0.904332
O       -0.418263         1.330350         0.000000
C        0.000000         0.000000         0.000000
H       -0.387168        -0.517654        -0.875683
H       -0.372452        -0.521196         0.878768
C        1.520260        -0.000000         0.000000
H        1.878867         0.478393         0.902109
H        1.889810         0.578078        -0.836759
S        2.242555        -1.667811        -0.014877
C        2.192404        -2.104101        -1.782967
H        2.238057        -3.184192        -1.815860
H        1.237757        -1.818089        -2.204059
C        3.338164        -1.493102        -2.588111
H        4.293944        -1.797373        -2.181276
H        3.300308        -0.413527        -2.532110
S        3.286082        -1.917205        -4.363504
C        4.549067        -3.220544        -4.513154
H        5.471320        -2.862145        -4.074117
H        4.719218        -3.319373        -5.577339
C        4.145528        -4.573071        -3.931518
H        3.972712        -4.507123        -2.864387
H        3.222309        -4.906282        -4.387525
S        5.354855        -5.895089        -4.242035
C        6.646314        -5.513860        -3.017225
H        7.081660        -4.545731        -3.231183
H        6.192218        -5.468800        -2.034023
C        7.728827        -6.589401        -3.049640
H        7.318016        -7.564967        -2.815443
H        8.197448        -6.644152        -4.026033
H        8.498364        -6.361666        -2.319325
 

