%Mem=61440MB 
%NProc=8 

#P HF/6-31G(d)  SCF(Conver=8,XQC,MaxConventionalCycles=64,MaxCycle=128) NoSymm Test 
   Pop=mk IOp(6/33=2) GFInput GFPrint 

 MEP step - Input generated by PyRED DVE-DMDS-OPLS 

0 1 
C       -6.315736        -3.242984        -0.479341
H       -6.015146        -2.797380         0.462018
H       -7.400290        -3.274136        -0.517506
H       -5.938451        -4.258707        -0.510475
C       -5.765331        -2.440323        -1.641837
H       -6.073711        -2.882153        -2.588957
H       -6.159555        -1.426477        -1.614181
O       -4.370001        -2.437701        -1.549641
C       -3.683841        -1.793415        -2.578218
H       -4.142852        -2.010796        -3.542227
H       -2.681516        -2.201646        -2.584657
C       -3.590626        -0.288722        -2.404727
H       -3.124925         0.138847        -3.292845
H       -4.580253         0.155075        -2.310818
O       -2.826628        -0.007375        -1.272584
C       -2.698155         1.349505        -0.977442
H       -3.677917         1.782174        -0.771870
H       -2.265321         1.888112        -1.818809
C       -1.817660         1.530330         0.243733
H       -2.167776         0.875728         1.037845
H       -1.911878         2.555261         0.584162
O       -0.456304         1.328078         0.000000
C       -0.000000         0.000000         0.000000
H       -0.383390        -0.541432        -0.853439
H       -0.349045        -0.502469         0.901312
C        1.518148         0.000000         0.000000
H        1.863143        -1.016275         0.155935
H        1.893225         0.592708         0.824382
S        2.330274         0.496614        -1.547643
C        2.021253         2.284683        -1.684504
H        2.555630         2.572260        -2.581944
H        0.967408         2.450648        -1.850514
C        2.463750         3.158561        -0.513925
H        1.885545         2.915826         0.366002
H        2.248757         4.189919        -0.773157
S        4.247750         3.023207        -0.168804
C        4.513944         4.521299         0.823624
H        4.085384         5.373559         0.309359
H        5.586926         4.665034         0.844858
C        3.977146         4.423618         2.249721
H        2.910357         4.244952         2.240570
H        4.454849         3.599797         2.764857
S        4.332126         5.974494         3.137595
C        3.826135         5.548361         4.831599
H        4.335325         4.638123         5.127270
H        4.224078         6.347140         5.446141
C        2.320660         5.423416         5.046713
H        1.897028         4.614729         4.461535
H        2.111031         5.217022         6.092579
H        1.812712         6.340476         4.771464
 

