%Mem=61440MB 
%NProc=8 

#P HF/6-31G(d)  SCF(Conver=8,XQC,MaxConventionalCycles=64,MaxCycle=128) NoSymm Test 
   Pop=mk IOp(6/33=2) GFInput GFPrint 

 MEP step - Input generated by PyRED DVE-DMDS-OPLS 

0 1 
C       -6.126238         3.279602        -2.285008
H       -5.867835         2.284397        -2.628989
H       -6.511797         3.202215        -1.274600
H       -6.910411         3.672593        -2.924393
C       -4.909881         4.183557        -2.320087
H       -4.527251         4.269304        -3.335855
H       -5.171348         5.186873        -1.985439
O       -3.927240         3.643139        -1.484296
C       -2.746511         4.383557        -1.417629
H       -2.939450         5.363424        -0.978951
H       -2.333449         4.535883        -2.412385
C       -1.733324         3.645748        -0.566866
H       -0.884695         4.298621        -0.394370
H       -2.174476         3.410620         0.397786
O       -1.246200         2.498070        -1.199922
C       -1.881620         1.279293        -0.905585
H       -1.784640         0.657914        -1.787132
H       -2.936913         1.436507        -0.717182
C       -1.254366         0.554548         0.273867
H       -1.892771        -0.280127         0.541519
H       -1.194939         1.215561         1.137593
O        0.000000         0.000000         0.000000
C        1.096034         0.870765         0.000000
H        1.076235         1.499333         0.888519
H        1.081600         1.518330        -0.866554
C        2.343665        -0.000000        -0.000000
H        2.358771        -0.603812        -0.898847
H        2.313572        -0.659721         0.856525
S        3.830933         1.047211         0.047413
C        5.143232        -0.175934        -0.249189
H        4.894058        -0.767218        -1.121143
H        6.016991         0.412762        -0.496761
C        5.429275        -1.077859         0.948770
H        4.544817        -1.642893         1.213166
H        5.700167        -0.485932         1.813638
S        6.703003        -2.346698         0.662982
C        8.260148        -1.393622         0.692478
H        8.977525        -2.005346         1.222763
H        8.111446        -0.500038         1.283764
C        8.806312        -1.065369        -0.697432
H        8.923701        -1.981146        -1.261224
H        8.124436        -0.438176        -1.256598
S       10.447462        -0.268932        -0.666300
C       10.057759         1.498170        -0.863077
H       11.018294         1.957473        -1.064716
H        9.456196         1.623407        -1.755959
C        9.399477         2.176748         0.333864
H        9.295015         3.241267         0.144224
H        8.407520         1.782141         0.524521
H        9.993215         2.046177         1.231135
 

