%Mem=61440MB 
%NProc=8 

#P HF/6-31G(d)  SCF(Conver=8,XQC,MaxConventionalCycles=64,MaxCycle=128) NoSymm Test 
   Pop=mk IOp(6/33=2) GFInput GFPrint 

 MEP step - Input generated by PyRED DVE-DMDS-OPLS 

0 1 
C       -5.537103         2.024118        -4.507836
H       -5.721449         3.075110        -4.316805
H       -4.536115         1.922725        -4.911328
H       -6.247759         1.676445        -5.251448
C       -5.672289         1.224041        -3.227012
H       -6.680945         1.317755        -2.825049
H       -5.501585         0.168194        -3.427883
O       -4.744232         1.715308        -2.304600
C       -4.761201         1.128480        -1.039138
H       -5.785692         0.949868        -0.713462
H       -4.311085         1.841434        -0.360988
C       -3.980793        -0.170236        -0.955394
H       -4.146423        -0.616748         0.025630
H       -4.332466        -0.883359        -1.699818
O       -2.628067         0.102396        -1.141580
C       -1.803230        -1.018578        -1.145556
H       -2.028619        -1.652871        -2.003361
H       -1.947011        -1.610541        -0.243775
C       -0.362238        -0.570102        -1.222872
H       -0.257372         0.150634        -2.029454
H        0.264516        -1.430519        -1.451328
O        0.000000         0.000000         0.000000
C        1.133541         0.815042        -0.000000
H        1.069888         1.413079         0.898917
H        1.121830         1.492299        -0.849563
C        2.425812        -0.000000        -0.000000
H        2.526421        -0.555901        -0.924225
H        2.409010        -0.719939         0.809740
S        3.928728         1.013837         0.114041
C        3.962252         1.418552         1.891379
H        3.083635         1.985034         2.166274
H        3.958588         0.495647         2.457771
C        5.213980         2.237522         2.196944
H        5.182053         3.176002         1.658144
H        6.104991         1.715145         1.872597
S        5.370561         2.687537         3.952476
C        6.053305         1.166955         4.687103
H        5.516021         0.309745         4.303188
H        5.831388         1.229911         5.744164
C        7.560160         1.018019         4.485938
H        7.821951         1.024465         3.436274
H        8.071392         1.855395         4.942231
S        8.253278        -0.467457         5.276425
C        7.823763        -1.788534         4.098960
H        7.967001        -2.705951         4.657234
H        6.768284        -1.731584         3.860879
C        8.668148        -1.813188         2.828209
H        8.374780        -2.652147         2.203492
H        8.543269        -0.909255         2.242346
H        9.720402        -1.915202         3.065983
 

