%Mem=61440MB 
%NProc=8 

#P HF/6-31G(d)  SCF(Conver=8,XQC,MaxConventionalCycles=64,MaxCycle=128) NoSymm Test 
   Pop=mk IOp(6/33=2) GFInput GFPrint 

 MEP step - Input generated by PyRED DVE-DMDS-OPLS 

0 1 
C       -5.906190        -3.421216         3.035218
H       -6.830831        -2.921876         2.765908
H       -5.770425        -4.267763         2.370822
H       -6.016734        -3.795253         4.048694
C       -4.705589        -2.487694         2.952049
H       -4.848857        -1.625829         3.601526
H       -3.816859        -3.005810         3.289215
O       -4.424037        -2.061413         1.647352
C       -5.259225        -1.071068         1.125533
H       -5.347127        -0.240172         1.822705
H       -6.258329        -1.462362         0.940392
C       -4.689184        -0.563886        -0.184127
H       -4.489282        -1.405477        -0.842417
H       -5.434162         0.065118        -0.659041
O       -3.548488         0.226092        -0.025485
C       -2.312967        -0.433522        -0.005621
H       -2.202371        -1.066245        -0.883133
H       -2.208742        -1.056261         0.872592
C       -1.243271         0.638551        -0.016221
H       -1.358199         1.282026         0.853391
H       -1.348731         1.257414        -0.904332
O        0.000000        -0.000000         0.000000
C        1.097629         0.860224         0.000000
H        1.071312         1.506112         0.875683
H        1.085450         1.500706        -0.878768
C        2.351107         0.000000         0.000000
H        2.376089        -0.597357        -0.902109
H        2.328706        -0.685740         0.836759
S        3.890364         0.966432         0.014877
C        4.095883         1.354537         1.782967
H        4.744683         2.219257         1.815860
H        3.146925         1.658894         2.204059
C        4.694852         0.202443         2.588111
H        5.655076        -0.087499         2.181276
H        4.052773        -0.666262         2.532110
S        4.891884         0.581593         4.363504
C        6.670715         0.941568         4.513154
H        7.228331         0.124215         4.074117
H        6.866929         0.926776         5.577339
C        7.103305         2.285085         3.931518
H        6.923500         2.328497         2.864387
H        6.530642         3.082217         4.387525
S        8.848464         2.690824         4.242035
C        9.697577         1.645736         3.017225
H        9.508721         0.601162         3.231183
H        9.297671         1.865529         2.034023
C       11.198710         1.920007         3.049640
H       11.412004         2.956829         2.815443
H       11.616075         1.699985         4.026033
H       11.704343         1.296801         2.319325
 

