%Mem=61440MB 
%NProc=8 

#P HF/6-31G(d)  SCF(Conver=8,XQC,MaxConventionalCycles=64,MaxCycle=128) NoSymm Test 
   Pop=mk IOp(6/33=2) GFInput GFPrint 

 MEP step - Input generated by PyRED DVE-DMDS-OPLS 

0 1 
C       -5.115570        -3.313279         4.108186
H       -4.404404        -2.989292         4.861995
H       -6.077597        -2.866158         4.343013
H       -5.211271        -4.391416         4.177295
C       -4.667147        -2.911258         2.710271
H       -5.398625        -3.240116         1.981708
H       -4.581282        -1.834673         2.624489
O       -3.457314        -3.529470         2.353120
C       -2.276846        -2.874836         2.713727
H       -1.564266        -3.633085         3.022786
H       -2.434719        -2.206781         3.555786
C       -1.681858        -2.098662         1.557912
H       -0.682114        -1.765229         1.816464
H       -1.607381        -2.750116         0.691579
O       -2.511338        -1.003967         1.272710
C       -2.355233        -0.385904         0.031986
H       -3.291221         0.120679        -0.174768
H       -2.190387        -1.122786        -0.749931
C       -1.241937         0.642485        -0.002618
H       -1.331803         1.301776         0.858078
H       -1.345384         1.248191        -0.903293
O        0.000000         0.000000         0.000000
C        1.099807         0.860064         0.000000
H        1.086440         1.500747         0.878320
H        1.071664         1.503671        -0.877148
C        2.353256         0.000000         0.000000
H        2.342596        -0.674597        -0.846903
H        2.370614        -0.606530         0.896472
S        3.899261         0.950613         0.005973
C        4.037661         1.429748        -1.745859
H        3.991300         0.540105        -2.361029
H        3.216189         2.078334        -2.020291
C        5.365286         2.150359        -1.964890
H        6.189291         1.490737        -1.722129
H        5.421843         3.019614        -1.322598
S        5.495369         2.651730        -3.709994
C        7.190260         3.309784        -3.772636
H        7.433578         3.367005        -4.825710
H        7.867120         2.590920        -3.330277
C        7.344986         4.689260        -3.133776
H        6.665235         5.383768        -3.608595
H        7.096030         4.669381        -2.080252
S        9.021794         5.384290        -3.317182
C        9.778408         5.067865        -1.692218
H       10.702930         5.632487        -1.718530
H        9.156792         5.517309        -0.926520
C       10.069255         3.606930        -1.364892
H       10.592948         3.537964        -0.415645
H        9.157248         3.026722        -1.275884
H       10.687352         3.151476        -2.129873
 

