%Mem=61440MB 
%NProc=8 

#P HF/6-31G(d)  SCF(Conver=8,XQC,MaxConventionalCycles=64,MaxCycle=128) NoSymm Test 
   Pop=mk IOp(6/33=2) GFInput GFPrint 

 MEP step - Input generated by PyRED DVE-DMDS-OPLS 

0 1 
C       -7.489436        -2.056779         3.038982
H       -7.317677        -2.102668         1.968972
H       -7.050685        -2.939070         3.492095
H       -8.562621        -2.084751         3.202928
C       -6.899571        -0.797538         3.659836
H       -7.325880         0.090716         3.196112
H       -7.141920        -0.762431         4.714405
O       -5.501274        -0.749169         3.589979
C       -4.952060        -0.396743         2.357243
H       -5.366611         0.550463         2.014869
H       -5.157425        -1.141826         1.593627
C       -3.448290        -0.289788         2.555520
H       -3.228709         0.447581         3.321990
H       -3.070067        -1.244528         2.895355
O       -2.789463         0.014706         1.357648
C       -2.660984         1.372818         1.048563
H       -2.190168         1.907204         1.869971
H       -3.636369         1.823018         0.869548
C       -1.819237         1.533557        -0.202463
H       -1.917483         2.555318        -0.550601
H       -2.198283         0.873623        -0.979280
O       -0.452554         1.326310         0.000000
C        0.000000        -0.000000         0.000000
H       -0.347951        -0.503981        -0.901757
H       -0.381053        -0.541845         0.854345
C        1.518444        -0.000000        -0.000000
H        1.889034         0.592780        -0.827856
H        1.865797        -1.016956        -0.144243
S        2.312890         0.552009         1.538884
C        2.202362         2.367897         1.414064
H        2.622862         2.669858         0.462854
H        1.168909         2.673111         1.437872
C        2.974610         2.991042         2.573393
H        4.006328         2.664642         2.578216
H        2.542212         2.678870         3.516354
S        2.900479         4.806470         2.626770
C        3.879803         5.311993         1.180569
H        3.797143         6.391720         1.167496
H        3.408201         4.945191         0.276892
C        5.353266         4.907197         1.163028
H        5.451344         3.829591         1.146349
H        5.788743         5.286693         0.244356
S        6.283842         5.602960         2.563895
C        7.987164         5.449842         1.946978
H        8.061555         5.948589         0.986838
H        8.582619         6.023517         2.647541
C        8.518855         4.022073         1.858341
H        7.959066         3.428595         1.143642
H        9.556657         4.030548         1.536945
H        8.463817         3.528147         2.821507
 

