%Mem=61440MB 
%NProc=8 

#P HF/6-31G(d)  SCF(Conver=8,XQC,MaxConventionalCycles=64,MaxCycle=128) NoSymm Test 
   Pop=mk IOp(6/33=2) GFInput GFPrint 

 MEP step - Input generated by PyRED DVE-DMDS-OPLS 

0 1 
C       -2.479467        -4.440596         3.780048
H       -3.559963        -4.502082         3.703372
H       -2.090226        -5.454252         3.764958
H       -2.231071        -3.992754         4.736295
C       -1.869622        -3.630391         2.643287
H       -0.789903        -3.651260         2.719535
H       -2.138569        -4.064320         1.681666
O       -2.223905        -2.276033         2.672016
C       -3.521336        -1.969109         2.262049
H       -4.251732        -2.282309         3.005447
H       -3.756753        -2.469810         1.325429
C       -3.632523        -0.474329         2.070111
H       -4.679408        -0.206107         1.926315
H       -3.275354         0.030526         2.964613
O       -2.878414        -0.100536         0.959857
C       -2.779206         1.274842         0.744517
H       -2.443542         1.780177         1.647659
H       -3.751556         1.685972         0.470164
C       -1.790616         1.538497        -0.373469
H       -1.859079         2.581129        -0.660063
H       -2.048221         0.933437        -1.238175
O       -0.460700         1.323420         0.000000
C        0.000000         0.000000         0.000000
H       -0.371697        -0.526250        -0.874288
H       -0.356510        -0.524404         0.878625
C        1.519323        -0.000000        -0.000000
H        1.861717        -1.013560         0.173239
H        1.890491         0.609050         0.815430
S        2.300426         0.542500        -1.556558
C        2.884820         2.220541        -1.178693
H        3.391291         2.195685        -0.219391
H        3.646971         2.423033        -1.921161
C        1.847681         3.342601        -1.151374
H        2.327411         4.248491        -0.794341
H        1.057987         3.093978        -0.458789
S        0.992885         3.726305        -2.707776
C        2.298455         4.516094        -3.709524
H        3.071639         4.880558        -3.044551
H        1.854240         5.381761        -4.181974
C        2.873859         3.593468        -4.783794
H        3.298415         2.698074        -4.351281
H        2.081664         3.270293        -5.446579
S        4.098763         4.403571        -5.859714
C        5.600949         4.405384        -4.831113
H        6.259362         5.119425        -5.311332
H        5.368225         4.808074        -3.852379
C        6.296538         3.052193        -4.712933
H        6.573428         2.674586        -5.690149
H        7.198529         3.148012        -4.114668
H        5.663106         2.311712        -4.237080
 

