%Mem=61440MB 
%NProc=8 

#P HF/6-31G(d)  SCF(Conver=8,XQC,MaxConventionalCycles=64,MaxCycle=128) NoSymm Test 
   Pop=mk IOp(6/33=2) GFInput GFPrint 

 MEP step - Input generated by PyRED DVE-DMDS-OPLS 

0 1 
C        1.524621         5.913952        -3.780048
H        0.660475         6.565492        -3.703372
H        2.411510         6.540398        -3.764958
H        1.482274         5.403591        -4.736295
C        1.581417         4.901472        -2.643287
H        2.490681         4.318833        -2.719535
H        1.598948         5.411687        -1.681666
O        0.534268         3.972344        -2.672016
C       -0.714958         4.438139        -2.262049
H       -1.148159         5.104404        -3.005447
H       -0.632447         4.985235        -1.325429
C       -1.638031         3.257180        -2.070111
H       -2.657449         3.615926        -1.926315
H       -1.621627         2.638973        -2.964613
O       -1.218785         2.527361        -0.959857
C       -1.900588         1.328757        -0.744517
H       -1.902330         0.722102        -1.647659
H       -2.937451         1.527273        -0.470164
C       -1.225194         0.560208         0.373469
H       -1.861494        -0.268581         0.660063
H       -1.103140         1.206397         1.238175
O        0.000000         0.000000        -0.000000
C        1.118432         0.844272         0.000000
H        1.101838         1.488340         0.874288
H        1.113439         1.478365        -0.878625
C        2.381582         0.000000         0.000000
H        3.229469         0.652399        -0.173239
H        2.351724        -0.712612        -0.815430
S        2.729521        -0.885080         1.556558
C        2.282911        -2.604928         1.178693
H        2.717797        -2.865703         0.219391
H        2.804032        -3.196797         1.921161
C        0.797126        -2.961470         1.151374
H        0.692575        -3.981198         0.794341
H        0.278740        -2.315942         0.458789
S       -0.126763        -2.805476         2.707776
C        0.519798        -4.187590         3.709524
H        0.960086        -4.920252         3.044551
H       -0.330560        -4.660451         4.181974
C        1.510876        -3.740274         4.783794
H        2.361409        -3.231774         4.351281
H        1.031838        -3.031375         5.446579
S        2.079083        -5.094452         5.859714
C        3.326978        -5.930708         4.831113
H        3.477590        -6.890228         5.311332
H        2.909722        -6.136179         3.852379
C        4.657237        -5.192210         4.712933
H        5.097274        -5.032137         5.690149
H        5.353898        -5.773101         4.114668
H        4.542086        -4.224591         4.237080
 

