%Mem=61440MB 
%NProc=8 

#P HF/6-31G(d)  SCF(Conver=8,XQC,MaxConventionalCycles=64,MaxCycle=128) NoSymm Test 
   Pop=mk IOp(6/33=2) GFInput GFPrint 

 MEP step - Input generated by PyRED DVE-DMDS-OPLS 

0 1 
C       -5.446890         0.538198        -1.589215
H       -5.068218        -0.463295        -1.771264
H       -6.524943         0.486690        -1.483194
H       -5.219616         1.152354        -2.453618
C       -4.814610         1.124848        -0.342075
H       -5.046328         0.508442         0.525639
H       -3.737090         1.163710        -0.436522
O       -5.343927         2.414324        -0.158521
C       -5.043309         3.059830         1.039209
H       -5.128161         2.377385         1.882514
H       -5.791157         3.835919         1.158937
C       -3.673446         3.711474         1.060691
H       -3.523226         4.257867         0.132298
H       -3.628062         4.426314         1.883699
O       -2.688419         2.734467         1.221384
C       -1.378560         3.194620         1.109107
H       -1.146038         3.883109         1.922006
H       -1.233457         3.721403         0.169299
C       -0.435121         2.016404         1.170214
H       -0.670866         1.411016         2.042780
H        0.582980         2.384334         1.271491
O       -0.577459         1.266856         0.000000
C       -0.000000         0.000000        -0.000000
H       -0.360218        -0.489703        -0.894518
H       -0.343672        -0.573353         0.860012
C        1.527818         0.000000        -0.000000
H        1.858472        -1.027214        -0.098753
H        1.919381         0.382020         0.935569
S        2.179998         0.998083        -1.374406
C        3.951295         0.591889        -1.285422
H        4.449225         1.388688        -1.822921
H        4.284036         0.648658        -0.256547
C        4.309552        -0.765361        -1.888533
H        3.971315        -0.826373        -2.915299
H        3.817930        -1.562540        -1.346098
S        6.083884        -1.163685        -1.809811
C        6.703397        -0.207001        -3.230305
H        6.269252         0.785558        -3.204143
H        6.377614        -0.679790        -4.148475
C        8.223284        -0.045943        -3.210735
H        8.512403         0.590578        -4.039971
H        8.525723         0.455446        -2.299733
S        9.218207        -1.563316        -3.265800
C        8.833887        -2.199039        -4.925516
H        7.790788        -2.485483        -4.973147
H        9.002583        -1.412060        -5.652213
C        9.717015        -3.404510        -5.237539
H        9.480688        -3.791152        -6.223550
H       10.767108        -3.135452        -5.221564
H        9.559570        -4.200583        -4.518226
 

