%Mem=61440MB 
%NProc=8 

#P HF/6-31G(d)  SCF(Conver=8,XQC,MaxConventionalCycles=64,MaxCycle=128) NoSymm Test 
   Pop=mk IOp(6/33=2) GFInput GFPrint 

 MEP step - Input generated by PyRED DVE-DMDS-OPLS 

0 1 
C       -2.352615         3.597123         7.451446
H       -2.174564         2.602325         7.843824
H       -1.800581         4.310724         8.055096
H       -3.411070         3.813741         7.540544
C       -1.918020         3.680382         6.001724
H       -2.084503         4.682950         5.611572
H       -0.853855         3.471339         5.915711
O       -2.668700         2.754835         5.263990
C       -2.378413         2.677376         3.899030
H       -2.056691         3.638878         3.506873
H       -3.298602         2.409424         3.393968
C       -1.305169         1.629168         3.626010
H       -0.385183         1.897123         4.130133
H       -1.626875         0.667815         4.016516
O       -1.009846         1.545668         2.258609
C       -1.778347         0.644398         1.513795
H       -2.825614         0.942688         1.498149
H       -1.718256        -0.349973         1.949010
C       -1.261031         0.596368         0.090694
H       -1.249700         1.598341        -0.329630
H       -1.941376        -0.006800        -0.500824
O        0.000000         0.000000         0.000000
C        1.100581         0.868341         0.000000
H        1.075354         1.514550         0.867187
H        1.086404         1.494938        -0.888620
C        2.348033         0.000000        -0.000000
H        2.367131        -0.607135        -0.895955
H        2.326287        -0.677085         0.843742
S        3.894978         0.953795        -0.008296
C        4.056148         1.465607         1.732328
H        4.751796         2.294755         1.715240
H        3.112911         1.851194         2.094268
C        4.566070         0.355974         2.649687
H        5.507148        -0.034877         2.285409
H        3.867322        -0.470328         2.667279
S        4.734780         0.867866         4.389552
C        6.299888         1.794779         4.369847
H        6.278052         2.409408         5.260155
H        6.297915         2.468347         3.520045
C        7.585343         0.964875         4.350409
H        7.586849         0.253607         3.533436
H        8.414360         1.641473         4.174461
S        7.989772         0.094138         5.895636
C        7.334217        -1.582239         5.612722
H        6.262692        -1.532283         5.487483
H        7.768724        -1.974499         4.700520
C        7.694450        -2.477827         6.794622
H        8.768843        -2.545625         6.925187
H        7.263550        -2.102054         7.716153
H        7.309884        -3.479021         6.628525
 

