%Mem=61440MB 
%NProc=8 

#P HF/6-31G(d)  SCF(Conver=8,XQC,MaxConventionalCycles=64,MaxCycle=128) NoSymm Test 
   Pop=mk IOp(6/33=2) GFInput GFPrint 

 MEP step - Input generated by PyRED DVE-DMDS-OPLS 

0 1 
C       -5.461987         5.055238        -0.676270
H       -4.941510         5.747916        -1.327878
H       -5.168062         4.047287        -0.946556
H       -6.529565         5.159783        -0.842741
C       -5.121387         5.335609         0.774028
H       -5.428473         6.344174         1.049154
H       -5.649476         4.645597         1.430663
O       -3.740510         5.195244         0.944223
C       -3.285867         5.438663         2.240503
H       -3.783279         4.782137         2.951889
H       -3.503195         6.468614         2.526638
C       -1.788520         5.213954         2.314876
H       -1.300222         5.767110         1.516389
H       -1.432078         5.603361         3.261916
O       -1.420417         3.867273         2.283751
C       -1.279747         3.271507         1.023706
H       -0.629696         3.867646         0.387856
H       -2.233047         3.167242         0.523500
C       -0.658359         1.909002         1.250671
H       -1.303082         1.314066         1.893454
H        0.296864         2.026704         1.755124
O       -0.512126         1.299906         0.000000
C        0.000000         0.000000        -0.000000
H       -0.356253        -0.478019        -0.902635
H       -0.388225        -0.560716         0.846558
C        1.527222        -0.000000         0.000000
H        1.925148         0.504958         0.871654
H        1.879029         0.537381        -0.871607
S        2.257242        -1.659732        -0.106662
C        2.109841        -2.232720         1.615924
H        2.595787        -1.519533         2.269840
H        1.067466        -2.300140         1.898206
C        2.773662        -3.600871         1.747111
H        3.823004        -3.530207         1.488490
H        2.301805        -4.304043         1.073294
S        2.620561        -4.181565         3.465696
C        3.600813        -5.713675         3.418571
H        3.809614        -5.954852         4.452491
H        4.550218        -5.503987         2.941943
C        2.886263        -6.887038         2.751275
H        1.965823        -7.099406         3.279182
H        2.617805        -6.657498         1.728838
S        3.839287        -8.436609         2.795588
C        5.058223        -8.203557         1.462952
H        5.565388        -7.255808         1.597725
H        5.796356        -8.977774         1.635061
C        4.494894        -8.324498         0.050025
H        3.756242        -7.558163        -0.157695
H        5.293495        -8.216422        -0.678514
H        4.025915        -9.290149        -0.097472
 

