%Mem=61440MB 
%NProc=8 

#P HF/6-31G(d)  SCF(Conver=8,XQC,MaxConventionalCycles=64,MaxCycle=128) NoSymm Test 
   Pop=mk IOp(6/33=2) GFInput GFPrint 

 MEP step - Input generated by PyRED DVE-DMDS-OPLS 

0 1 
C       -6.641248         2.217508        -6.671824
H       -6.910281         1.428833        -7.367627
H       -7.336016         2.196073        -5.839806
H       -6.742655         3.172410        -7.174778
C       -5.219694         2.029886        -6.180094
H       -5.117656         1.066860        -5.683500
H       -4.523669         2.037993        -7.017135
O       -4.916645         3.077478        -5.301307
C       -3.640991         3.051461        -4.731255
H       -3.337922         4.076539        -4.561179
H       -2.916382         2.598246        -5.402477
C       -3.646141         2.309629        -3.404609
H       -4.342799         2.791057        -2.722081
H       -3.973629         1.280004        -3.538513
O       -2.346156         2.345189        -2.896472
C       -2.179941         1.731678        -1.655176
H       -2.440024         0.675284        -1.710910
H       -2.820397         2.189031        -0.904479
C       -0.725737         1.897995        -1.250404
H       -0.493658         2.951749        -1.168326
H       -0.083063         1.476154        -2.017249
O       -0.495474         1.309356         0.000000
C        0.000000         0.000000        -0.000000
H       -0.371401        -0.563632        -0.850484
H       -0.375879        -0.476232         0.896265
C        1.525830        -0.000000         0.000000
H        1.891586         0.600756         0.822583
H        1.900916         0.448387        -0.911938
S        2.245477        -1.668365         0.062628
C        2.173176        -2.062389         1.840021
H        1.208976        -1.783309         2.242775
H        2.237568        -3.141568         1.890777
C        3.297368        -1.418674         2.649011
H        3.231978        -0.339606         2.597069
H        4.261811        -1.695716         2.245148
S        3.226793        -1.808685         4.426583
C        3.920658        -3.491681         4.497171
H        3.487743        -4.101974         3.715643
H        3.579220        -3.901766         5.437630
C        5.446287        -3.525510         4.420345
H        5.784657        -3.096134         3.486778
H        5.880569        -2.934527         5.216392
S        6.136398        -5.213417         4.487319
C        6.681969        -5.362581         6.217729
H        7.252686        -6.283603         6.234122
H        7.375284        -4.557905         6.432673
C        5.574254        -5.416412         7.264693
H        5.022959        -4.483803         7.313451
H        4.873310        -6.214905         7.050438
H        6.003369        -5.592493         8.247046
 

