%Mem=61440MB 
%NProc=8 

#P HF/6-31G(d)  SCF(Conver=8,XQC,MaxConventionalCycles=64,MaxCycle=128) NoSymm Test 
   Pop=mk IOp(6/33=2) GFInput GFPrint 

 MEP step - Input generated by PyRED DVE-DMDS-OPLS 

0 1 
C       -7.301096         2.158177         2.285008
H       -6.519616         2.826382         2.628989
H       -7.572974         2.442301         1.274600
H       -8.169057         2.284716         2.924393
C       -6.821006         0.720759         2.320087
H       -6.556314         0.431454         3.335855
H       -7.609639         0.047657         1.985439
O       -5.705919         0.601526         1.484296
C       -5.161450        -0.681398         1.417629
H       -5.880467        -1.374491         0.978951
H       -4.909907        -1.042715         2.412385
C       -3.908343        -0.656248         0.566866
H       -3.586100        -1.677312         0.394370
H       -4.135529        -0.210954        -0.397786
O       -2.852042         0.006086         1.199922
C       -2.675567         1.369183         0.905585
H       -2.240411         1.823226         1.787132
H       -3.630914         1.844233         0.717182
C       -1.746412         1.604500        -0.273867
H       -1.792216         2.654331        -0.541519
H       -2.075995         1.028440        -1.137593
O       -0.400417         1.341338         0.000000
C        0.000000        -0.000000         0.000000
H       -0.375981        -0.504111        -0.888519
H       -0.382455        -0.522760         0.866554
C        1.521451         0.000000         0.000000
H        1.879415         0.486496         0.898847
H        1.874349         0.558212        -0.856525
S        2.141706        -1.709942        -0.047413
C        3.917862        -1.457992         0.249189
H        4.051940        -0.830515         1.121143
H        4.297442        -2.440813         0.496761
C        4.668619        -0.882099        -0.948770
H        4.266724         0.087442        -1.213166
H        4.551984        -1.522533        -1.813638
S        6.439299        -0.570603        -0.662982
C        7.170730        -2.243345        -0.692478
H        8.109104        -2.152288        -1.222763
H        6.537370        -2.891001        -1.283764
C        7.430732        -2.825105         0.697432
H        8.051116        -2.141328         1.261224
H        6.512617        -2.949165         1.256598
S        8.320698        -4.417475         0.666300
C        6.989774        -5.643510         0.863077
H        7.514568        -6.569889         1.064716
H        6.424800        -5.401918         1.755959
C        6.061598        -5.823211        -0.333864
H        5.366686        -6.636358        -0.144224
H        5.474010        -4.931900        -0.524521
H        6.623208        -6.055950        -1.231135
 

