%Mem=61440MB 
%NProc=8 

#P HF/6-31G(d)  SCF(Conver=8,XQC,MaxConventionalCycles=64,MaxCycle=128) NoSymm Test 
   Pop=mk IOp(6/33=2) GFInput GFPrint 

 MEP step - Input generated by PyRED DVE-DMDS-OPLS 

0 1 
C       -2.310707         7.063157         0.479341
H       -2.309991         6.525648        -0.462018
H       -3.193239         7.694319         0.517506
H       -1.430755         7.695391         0.510475
C       -2.301987         6.089949         1.641837
H       -2.311273         6.628675         2.588957
H       -3.194947         5.468726         1.614181
O       -1.145662         5.309010         1.549641
C       -0.935904         4.391446         2.578218
H       -1.195449         4.828004         3.542227
H        0.123626         4.170761         2.584657
C       -1.698361         3.090888         2.404727
H       -1.550577         2.476191         3.292845
H       -2.767206         3.274976         2.310818
O       -1.221452         2.431034         1.272584
C       -1.872155         1.233447         0.977442
H       -2.926603         1.421262         0.771870
H       -1.813616         0.544959         1.818809
C       -1.242479         0.591982        -0.243733
H       -1.167643         1.330552        -1.037845
H       -1.892694        -0.205878        -0.584162
O       -0.000000         0.000000        -0.000000
C        1.119851         0.847312         0.000000
H        1.103916         1.510548         0.853439
H        1.110667         1.459050        -0.901312
C        2.379549        -0.000000         0.000000
H        3.233016         0.650714        -0.155935
H        2.359969        -0.701144        -0.824382
S        2.776246        -0.865335         1.547643
C        1.521873        -2.176530         1.684504
H        1.804774        -2.713397         2.581944
H        0.554806        -1.726067         1.850514
C        1.401308        -3.148605         0.513925
H        1.057013        -2.624485        -0.366002
H        0.647293        -3.884392         0.773157
S        2.957142        -4.031984         0.168804
C        2.341901        -5.423608        -0.823624
H        1.510635        -5.891589        -0.309359
H        3.151996        -6.141728        -0.844858
C        1.951006        -5.042958        -2.249721
H        1.165546        -4.299309        -2.240570
H        2.807177        -4.626001        -2.764857
S        1.379977        -6.527932        -3.137595
C        1.197960        -5.891940        -4.831599
H        2.128488        -5.420852        -5.127270
H        1.082341        -6.776836        -5.446141
C        0.018513        -4.948028        -5.046713
H        0.118347        -4.040574        -4.461535
H       -0.040236        -4.659772        -6.092579
H       -0.914793        -5.425470        -4.771464
 

