%Mem=61440MB 
%NProc=8 

#P HF/6-31G(d)  SCF(Conver=8,XQC,MaxConventionalCycles=64,MaxCycle=128) NoSymm Test 
   Pop=mk IOp(6/33=2) GFInput GFPrint 

 MEP step - Input generated by PyRED DVE-DMDS-OPLS 

0 1 
C       -1.926115         0.167562         7.635213
H       -0.984693         0.457194         8.090931
H       -2.717282         0.742494         8.107466
H       -2.092173        -0.883297         7.843655
C       -1.918514         0.408332         6.132816
H       -2.872058         0.120514         5.707816
H       -1.774974         1.464803         5.916889
O       -0.946133        -0.366995         5.481771
C        0.338637         0.183457         5.390041
H        1.040513        -0.641064         5.404448
H        0.550707         0.816626         6.249155
C        0.556315         0.988024         4.117560
H       -0.231665         1.729523         3.997731
H        1.498245         1.518613         4.205784
O        0.664017         0.200118         2.967862
C       -0.533773        -0.251448         2.387316
H       -1.220073         0.580595         2.243331
H       -1.013659        -0.978313         3.031672
C       -0.231172        -0.898659         1.050014
H       -1.099749        -1.467527         0.742596
H        0.592564        -1.594455         1.164470
O        0.000000         0.000000         0.000000
C        1.163481         0.772687         0.000000
H        1.182880         1.446331         0.849183
H        1.095742         1.379603        -0.893831
C        2.481227         0.000000        -0.000000
H        2.637811        -0.482863         0.955733
H        3.285029         0.717833        -0.124042
S        2.677436        -1.329892        -1.225439
C        2.378632        -0.482593        -2.811384
H        2.653707         0.559898        -2.716499
H        3.067407        -0.924957        -3.519374
C        0.939285        -0.621098        -3.306275
H        0.248767        -0.207784        -2.585767
H        0.680281        -1.665958        -3.417909
S        0.622254         0.262688        -4.867241
C        1.326525        -0.861897        -6.114982
H        2.297008        -1.207013        -5.783625
H        1.492509        -0.254835        -6.995114
C        0.408353        -2.031598        -6.464149
H        0.164678        -2.618072        -5.588457
H       -0.525696        -1.653992        -6.858834
S        1.078950        -3.121478        -7.758721
C        2.282130        -4.139742        -6.846963
H        2.888207        -4.599111        -7.618686
H        2.941431        -3.496558        -6.276447
C        1.666840        -5.215682        -5.956881
H        1.056625        -4.788042        -5.169038
H        1.043153        -5.885941        -6.536581
H        2.451189        -5.799985        -5.483964
 

