%Mem=61440MB 
%NProc=8 

#P HF/6-31G(d)  SCF(Conver=8,XQC,MaxConventionalCycles=64,MaxCycle=128) NoSymm Test 
   Pop=mk IOp(6/33=2) GFInput GFPrint 

 MEP step - Input generated by PyRED DVE-DMDS-OPLS 

0 1 
C       -4.235265         4.294189        -3.184008
H       -4.870358         3.546356        -3.646053
H       -4.172811         4.076297        -2.123621
H       -4.714963         5.260564        -3.308426
C       -2.842573         4.318068        -3.798499
H       -2.897285         4.539554        -4.862956
H       -2.251445         5.098186        -3.335235
O       -2.135052         3.124767        -3.592754
C       -2.412196         2.086624        -4.485121
H       -2.114065         2.372170        -5.494530
H       -3.471785         1.849160        -4.501426
C       -1.641712         0.850554        -4.068501
H       -1.724826         0.108743        -4.855201
H       -0.590465         1.102145        -3.955024
O       -2.154834         0.269090        -2.905403
C       -1.590787         0.662384        -1.682011
H       -2.383205         0.674207        -0.944617
H       -1.182003         1.662569        -1.742249
C       -0.529819        -0.342059        -1.252852
H        0.252600        -0.413906        -2.005060
H       -0.982933        -1.320828        -1.160850
O        0.000000         0.000000        -0.000000
C        1.145196         0.807971        -0.000000
H        1.098528         1.426835         0.885897
H        1.143053         1.465841        -0.866902
C        2.439027        -0.000000        -0.000000
H        3.270011         0.674264        -0.178468
H        2.439356        -0.715935        -0.813965
S        2.871874        -0.822447         1.562879
C        1.687750        -2.198634         1.673374
H        1.724171        -2.510941         2.709606
H        0.695963        -1.815330         1.483734
C        1.965694        -3.385413         0.748768
H        2.121068        -3.048382        -0.267859
H        1.095140        -4.031516         0.728996
S        3.427777        -4.384798         1.166544
C        2.776055        -5.467610         2.474875
H        2.162070        -4.887007         3.152491
H        3.639308        -5.800706         3.036443
C        2.006560        -6.673541         1.941029
H        1.174068        -6.351509         1.329953
H        2.659617        -7.280727         1.327061
S        1.397134        -7.669956         3.339056
C        0.744452        -9.136461         2.484069
H        1.522013        -9.540837         1.846028
H        0.574028        -9.860023         3.272382
C       -0.541998        -8.908599         1.695812
H       -1.326149        -8.523044         2.337023
H       -0.395759        -8.206573         0.882400
H       -0.883142        -9.845228         1.263798
 

