%chk=03-IsoP_001_gaussian.chk
%nproc=1
%mem=1000Mb
#p opt pm3

Conformer number 001. Energy MM = 23.712 kcal/mol

0 1
C  -0.5554    -0.4945    -0.3358
H  -0.5752    -1.5911    -0.2760
H  0.0125    -0.2581    -1.2453
C  -1.9672    0.0478    -0.4829
C  -2.0566    1.4927    -0.8967
H  -1.3698    1.6918    -1.7265
H  -1.7872    2.1465    -0.0616
H  -3.0519    1.7806    -1.2428
C  -3.0281    -0.7587    -0.2797
H  -2.8442    -1.7978    -0.0068
C  -4.4803    -0.4093    -0.3595
H  -4.6688    0.6612    -0.4605
H  -4.9400    -0.9241    -1.2085
H  -4.9850    -0.7422    0.5534
C  4.0085    -0.7292    1.0141
H  4.6452    -0.1596    1.6990
H  3.8368    -1.7138    1.4617
H  4.5533    -0.8809    0.0765
C  2.7240    0.0149    0.7575
C  2.9095    1.3785    0.1509
H  1.9719    1.8484    -0.1549
H  3.4040    2.0442    0.8656
H  3.5355    1.3090    -0.7453
C  1.5349    -0.5452    1.0538
H  1.5249    -1.5508    1.4747
C  0.1670    0.0638    0.8957
H  -0.4111    -0.1654    1.8003
H  0.2220    1.1558    0.8509

