%chk=03-IsoP_419_gaussian.chk
%nproc=1
%mem=1000Mb
#p opt pm3

Conformer number 419. Energy MM = 23.692 kcal/mol

0 1
C  -1.5243    0.5026    1.2324
H  -2.1939    1.2352    1.7028
H  -1.8956    -0.4699    1.5744
C  -1.6545    0.6449    -0.2721
C  -1.7021    2.0656    -0.7760
H  -1.8276    2.1165    -1.8628
H  -2.5426    2.6009    -0.3223
H  -0.7774    2.5947    -0.5273
C  -1.7539    -0.3841    -1.1373
H  -1.8607    -0.1611    -2.1985
C  -1.7114    -1.8481    -0.8343
H  -0.9174    -2.3194    -1.4227
H  -1.5200    -2.0754    0.2159
H  -2.6626    -2.3108    -1.1148
C  2.7298    -1.6131    0.3878
H  3.7730    -1.4007    0.6438
H  2.3979    -2.4484    1.0134
H  2.6867    -1.9424    -0.6555
C  1.8846    -0.3811    0.5814
C  2.3045    0.7916    -0.2604
H  1.6471    1.6575    -0.1635
H  3.3149    1.1099    0.0165
H  2.3101    0.5103    -1.3190
C  0.8423    -0.3932    1.4351
H  0.6299    -1.3159    1.9752
C  -0.1021    0.7326    1.7661
H  0.2792    1.7036    1.4383
H  -0.1540    0.7978    2.8608

