%Mem=61440MB 
%NProc=8 

#P HF/6-31G(d)  Opt=(Tight,MaxCycle=55) GFInput GFPrint SCF(Conver=8,XQC,MaxConventionalCycles=64,MaxCycle=128) Test 

 Optimization step - Input generated by PyRED DVE-DMDS-OPLS 

0 1 
C        4.533924         5.239699         0.359368
H        4.049727         5.365548        -0.602402
H        4.063277         5.908256         1.073430
H        5.575535         5.521569         0.255517
C        4.421183         3.801676         0.825071
H        4.895813         3.678148         1.796948
H        3.375362         3.523722         0.937076
O        5.055860         2.982910        -0.118974
C        5.025396         1.609761         0.139700
H        5.026190         1.407353         1.207788
H        5.934151         1.189108        -0.273640
C        3.805628         0.958353        -0.502926
H        2.897253         1.378142        -0.089470
H        3.805173         1.159190        -1.570567
O        3.769378        -0.419227        -0.248106
C        4.428240        -1.236809        -1.172818
H        5.499103        -1.038760        -1.177160
H        4.048122        -1.053251        -2.174624
C        4.200079        -2.690657        -0.813090
H        4.511210        -2.868007         0.212822
H        4.816964        -3.304518        -1.460549
O        2.874895        -3.088945        -1.011416
C        2.036439        -3.042573         0.111142
H        2.047733        -2.055641         0.553943
H        2.372365        -3.753565         0.862218
C        0.641310        -3.413770        -0.364230
H        0.650791        -4.418642        -0.766542
H        0.336121        -2.752609        -1.164568
S       -0.599628        -3.417590         0.963512
C       -0.966929        -1.645532         1.169898
H       -1.426323        -1.568601         2.147009
H       -0.047138        -1.078100         1.207004
C       -1.895927        -1.085860         0.094455
H       -2.814485        -1.656439         0.052240
H       -1.433015        -1.161246        -0.880924
S       -2.270226         0.684447         0.303129
C       -3.532760         0.660958         1.612549
H       -3.536723         1.662454         2.022284
H       -3.204752        -0.003633         2.404125
C       -4.951044         0.274657         1.187393
H       -4.965129        -0.675456         0.667358
H       -5.543209         0.145167         2.086606
S       -5.843784         1.508635         0.192511
C       -5.567866         0.943304        -1.517550
H       -4.512318         0.982186        -1.742608
H       -5.898909        -0.085499        -1.599729
C       -6.354183         1.827625        -2.481091
H       -7.417773         1.789410        -2.273049
H       -6.032326         2.861147        -2.415201
H       -6.196576         1.491783        -3.501012
 

