%Mem=61440MB 
%NProc=8 

#P HF/6-31G(d)  Opt=(Tight,MaxCycle=55) GFInput GFPrint SCF(Conver=8,XQC,MaxConventionalCycles=64,MaxCycle=128) Test 

 Optimization step - Input generated by PyRED DVE-DMDS-OPLS 

0 1 
C        7.816000         2.241000        -1.085000
H        6.986000         2.875000        -1.409000
H        8.599000         2.879000        -0.664000
H        8.216000         1.728000        -1.963000
C        7.338000         1.234000        -0.060000
H        8.171000         0.595000         0.275000
H        6.952000         1.755000         0.830000
O        6.336000         0.442000        -0.660000
C        5.866000        -0.617000         0.136000
H        6.704000        -1.147000         0.616000
H        5.368000        -1.313000        -0.544000
C        4.875000        -0.196000         1.206000
H        4.637000        -1.069000         1.836000
H        5.308000         0.573000         1.865000
O        3.714000         0.296000         0.582000
C        2.739000         0.743000         1.493000
H        3.137000         1.574000         2.100000
H        2.449000        -0.065000         2.183000
C        1.515000         1.222000         0.738000
H        1.832000         1.911000        -0.059000
H        0.872000         1.773000         1.432000
O        0.717000         0.187000         0.212000
C        1.194000        -0.394000        -0.992000
H        2.129000        -0.935000        -0.820000
H        1.398000         0.405000        -1.724000
C        0.127000        -1.316000        -1.546000
H        0.433000        -1.648000        -2.543000
H       -0.820000        -0.781000        -1.664000
S       -0.150000        -2.868000        -0.635000
C       -0.908000        -2.320000         0.932000
H       -1.201000        -3.253000         1.421000
H       -0.151000        -1.828000         1.545000
C       -2.106000        -1.387000         0.813000
H       -1.773000        -0.420000         0.432000
H       -2.517000        -1.228000         1.817000
S       -3.426000        -2.085000        -0.239000
C       -4.816000        -1.029000         0.279000
H       -4.887000        -1.032000         1.372000
H       -5.715000        -1.519000        -0.104000
C       -4.733000         0.397000        -0.253000
H       -3.816000         0.879000         0.094000
H       -4.719000         0.384000        -1.346000
S       -6.186000         1.342000         0.323000
C       -5.974000         2.887000        -0.621000
H       -5.902000         2.640000        -1.685000
H       -6.916000         3.426000        -0.483000
C       -4.800000         3.751000        -0.179000
H       -3.845000         3.237000        -0.324000
H       -4.768000         4.677000        -0.764000
H       -4.885000         4.014000         0.878000
 

