%Mem=61440MB 
%NProc=8 

#P HF/6-31G(d)  Opt=(Tight,MaxCycle=55) GFInput GFPrint SCF(Conver=8,XQC,MaxConventionalCycles=64,MaxCycle=128) Test 

 Optimization step - Input generated by PyRED DVE-DMDS-OPLS 

0 1 
C        8.424550         3.027237        -0.787309
H        9.235007         2.687106        -0.151467
H        8.616877         2.682620        -1.797625
H        8.438923         4.113075        -0.787027
C        7.069645         2.523638        -0.307284
H        6.883396         2.849866         0.714495
H        6.285851         2.936711        -0.929380
O        6.931683         1.132205        -0.397377
C        7.583729         0.380421         0.582562
H        7.343079         0.756838         1.574807
H        8.664112         0.430124         0.456479
C        7.152232        -1.069071         0.481799
H        7.281832        -1.415534        -0.540325
H        7.796538        -1.661603         1.122078
O        5.845531        -1.292277         0.921292
C        4.822107        -1.159372        -0.025785
H        5.025999        -1.774623        -0.898990
H        4.715349        -0.134508        -0.354694
C        3.545537        -1.630741         0.638950
H        3.344597        -1.026155         1.520759
H        3.656185        -2.663425         0.961709
O        2.510310        -1.509159        -0.292327
C        1.256209        -1.901056         0.175048
H        0.968998        -1.299691         1.035600
H        1.271094        -2.940768         0.493438
C        0.267530        -1.719902        -0.965511
H        0.549156        -2.362371        -1.789636
H        0.303961        -0.700942        -1.327858
S       -1.436044        -2.173882        -0.523648
C       -2.042308        -0.670564         0.307897
H       -2.875022        -0.993247         0.917996
H       -1.285670        -0.295316         0.984029
C       -2.481063         0.422316        -0.665469
H       -3.254384         0.054459        -1.327483
H       -1.649615         0.724221        -1.288038
S       -3.078577         1.936222         0.162597
C       -4.888893         1.793437         0.026224
H       -5.145650         1.611622        -1.009523
H       -5.263365         2.776511         0.280271
C       -5.520183         0.751705         0.946398
H       -5.167654        -0.245371         0.712878
H       -5.247333         0.957747         1.973240
S       -7.338220         0.746771         0.910082
C       -7.677243        -0.118816        -0.654902
H       -7.284391         0.454955        -1.484981
H       -7.172149        -1.077756        -0.639673
C       -9.180989        -0.317185        -0.825373
H       -9.591640        -0.909531        -0.015539
H       -9.701470         0.633888        -0.847771
H       -9.382495        -0.833121        -1.758439
 

