%Mem=61440MB 
%NProc=8 

#P HF/6-31G(d)  Opt=(Tight,MaxCycle=55) GFInput GFPrint SCF(Conver=8,XQC,MaxConventionalCycles=64,MaxCycle=128) Test 

 Optimization step - Input generated by PyRED DVE-DMDS-OPLS 

0 1 
C        9.089000         0.191000         1.226000
H        8.191000         0.154000         1.849000
H        9.743000        -0.628000         1.540000
H        9.609000         1.137000         1.410000
C        8.752000         0.043000        -0.249000
H        9.672000        -0.040000        -0.836000
H        8.168000        -0.870000        -0.408000
O        8.085000         1.165000        -0.807000
C        6.824000         1.500000        -0.272000
H        6.550000         2.437000        -0.765000
H        6.878000         1.696000         0.807000
C        5.723000         0.489000        -0.529000
H        4.745000         0.972000        -0.415000
H        5.799000         0.117000        -1.561000
O        5.850000        -0.585000         0.391000
C        4.976000        -1.668000         0.178000
H        5.434000        -2.531000         0.672000
H        4.887000        -1.895000        -0.895000
C        3.592000        -1.465000         0.763000
H        3.685000        -1.094000         1.794000
H        3.067000        -2.435000         0.799000
O        2.866000        -0.551000        -0.030000
C        1.573000        -0.292000         0.467000
H        1.620000         0.132000         1.481000
H        0.996000        -1.229000         0.529000
C        0.905000         0.690000        -0.479000
H        0.903000         0.290000        -1.497000
H        1.475000         1.623000        -0.497000
S       -0.786000         1.140000         0.009000
C       -1.698000        -0.350000        -0.525000
H       -1.468000        -0.554000        -1.575000
H       -1.390000        -1.215000         0.069000
C       -3.191000        -0.105000        -0.353000
H       -3.508000         0.732000        -0.983000
H       -3.410000         0.145000         0.688000
S       -4.103000        -1.606000        -0.849000
C       -5.816000        -0.985000        -0.800000
H       -6.412000        -1.742000        -1.318000
H       -5.884000        -0.069000        -1.392000
C       -6.357000        -0.777000         0.611000
H       -6.290000        -1.714000         1.169000
H       -5.769000        -0.035000         1.160000
S       -8.109000        -0.258000         0.643000
C       -7.965000         1.545000         0.879000
H       -8.994000         1.872000         1.055000
H       -7.411000         1.733000         1.804000
C       -7.359000         2.318000        -0.285000
H       -7.388000         3.394000        -0.081000
H       -6.312000         2.045000        -0.448000
H       -7.908000         2.127000        -1.211000
 

