%Mem=61440MB 
%NProc=8 

#P HF/6-31G(d)  SCF(Conver=8,XQC,MaxConventionalCycles=64,MaxCycle=128) NoSymm Test 
   Pop=mk IOp(6/33=2) GFInput GFPrint 

 MEP step - Input generated by PyRED DVE-DMDS-OPLS 

0 1 
C       -2.763745         6.957987        -4.107838
H       -2.360724         6.288529        -4.861732
H       -3.809966         7.133676        -4.342593
H       -2.232628         7.901100        -4.176886
C       -2.621402         6.372650        -2.709986
H       -3.038417         7.057617        -1.981335
H       -3.159748         5.436380        -2.624264
O       -1.274042         6.197810        -2.352925
C       -0.671140         4.990138        -2.713654
H        0.345419         5.212164        -3.022750
H       -1.179356         4.528701        -3.555722
C       -0.619673         4.013416        -1.557915
H        0.015964         3.172833        -1.816565
H       -0.189609         4.508349        -0.691569
O       -1.922990         3.580127        -1.272677
C       -2.143941         2.982157        -0.031960
H       -3.202328         3.094008         0.174807
H       -1.591095         3.496482         0.749957
C       -1.807803         1.504312         0.002620
H       -2.254914         1.011546        -0.858085
H       -2.235797         1.063385         0.903288
O       -0.420250         1.331419        -0.000000
C        0.000000         0.000000        -0.000000
H       -0.373506        -0.520717        -0.878321
H       -0.387344        -0.514769         0.877147
C        1.520147        -0.000000        -0.000000
H        1.893028         0.562280         0.846902
H        1.877621         0.490296        -0.896473
S        2.257083        -1.658529        -0.005967
C        2.100115        -2.131903         1.745867
H        2.565227        -1.372109         2.361034
H        1.055808        -2.201926         2.020297
C        2.787111        -3.477228         1.964902
H        3.839752        -3.399537         1.722145
H        2.341942        -4.225980         1.322612
S        2.610703        -3.964230         3.710009
C        3.635934        -5.465761         3.772659
H        3.804183        -5.650605         4.825734
H        4.600763        -5.255966         3.330304
C        2.983047        -6.690763         3.133796
H        2.029613        -6.878840         3.608607
H        2.789024        -6.533521         2.080269
S        3.972444        -8.212552         3.317214
C        4.775356        -8.379718         1.692256
H        5.218234        -9.368353         1.718576
H        4.008518        -8.398625         0.926552
C        5.841736        -7.339642         1.364933
H        6.312576        -7.579069         0.415689
H        5.417996        -6.345236         1.275921
H        6.609075        -7.313793         2.129918
 

