%Mem=61440MB 
%NProc=8 

#P HF/6-31G(d)  SCF(Conver=8,XQC,MaxConventionalCycles=64,MaxCycle=128) NoSymm Test 
   Pop=mk IOp(6/33=2) GFInput GFPrint 

 MEP step - Input generated by PyRED DVE-DMDS-OPLS 

0 1 
C       -6.287165         2.535870         4.507868
H       -7.003749         1.745251         4.316843
H       -5.386411         2.087650         4.911358
H       -6.702785         3.209050         5.251478
C       -5.974708         3.284707         3.227039
H       -6.877851         3.743514         2.825078
H       -5.267072         4.086709         3.427903
O       -5.451806         2.374098         2.304628
C       -5.153117         2.879500         1.039163
H       -5.924375         3.577099         0.713489
H       -5.152734         2.036345         0.361015
C       -3.800215         3.561670         0.955411
H       -3.702117         4.027697        -0.025614
H       -3.717241         4.352452         1.699834
O       -2.801482         2.609445         1.141592
C       -1.505819         3.117576         1.145560
H       -1.358085         3.774314         2.003365
H       -1.311649         3.694974         0.243778
C       -0.526236         1.969531         1.222873
H       -0.822018         1.303974         2.029456
H        0.462887         2.362946         1.451324
O       -0.523978         1.294085         0.000000
C        0.000000         0.000000         0.000000
H       -0.372871        -0.471876        -0.898917
H       -0.371198        -0.566591         0.849564
C        1.527828        -0.000000        -0.000000
H        1.909478         0.416522         0.924225
H        1.897678         0.617903        -0.809741
S        2.258180        -1.659280        -0.114039
C        2.070632        -2.019483        -1.891377
H        1.025280        -2.029917        -2.166270
H        2.559868        -1.236915        -2.457771
C        2.692482        -3.379938        -2.196940
H        2.164833        -4.156694        -1.658136
H        3.724790        -3.413420        -1.872596
S        2.584849        -3.844106        -3.952470
C        3.973501        -2.922183        -4.687104
H        3.976345        -1.910513        -4.303192
H        3.752211        -2.857052        -5.744165
C        5.327486        -3.600062        -4.485941
H        5.545480        -3.745165        -3.436277
H        5.313188        -4.581059        -4.942231
S        6.706187        -2.713367        -5.276436
C        7.047643        -1.366836        -4.098977
H        7.658203        -0.667276        -4.657256
H        6.124514        -0.851945        -3.860894
C        7.775000        -1.796427        -2.828228
H        7.974418        -0.930313        -2.203514
H        7.187162        -2.494375        -2.242359
H        8.719441        -2.271480        -3.066003
 

