%Mem=61440MB 
%NProc=8 

#P HF/6-31G(d)  SCF(Conver=8,XQC,MaxConventionalCycles=64,MaxCycle=128) NoSymm Test 
   Pop=mk IOp(6/33=2) GFInput GFPrint 

 MEP step - Input generated by PyRED DVE-DMDS-OPLS 

0 1 
C       -2.479518        -4.440682         3.779905
H       -3.560009        -4.502186         3.703185
H       -2.090258        -5.454331         3.764807
H       -2.231168        -3.992858         4.736171
C       -1.869642        -3.630441         2.643188
H       -0.789926        -3.651297         2.719475
H       -2.138546        -4.064352         1.681545
O       -2.223945        -2.276089         2.671935
C       -3.521366        -1.969173         2.261933
H       -4.251782        -2.282396         3.005302
H       -3.756748        -2.469859         1.325295
C       -3.632566        -0.474393         2.070019
H       -4.679450        -0.206180         1.926194
H       -3.275430         0.030453         2.964541
O       -2.878426        -0.100571         0.959795
C       -2.779216         1.274811         0.744492
H       -2.443561         1.780123         1.647651
H       -3.751562         1.685949         0.470138
C       -1.790614         1.538495        -0.373478
H       -1.859080         2.581134        -0.660050
H       -2.048207         0.933454        -1.238200
O       -0.460701         1.323420        -0.000000
C        0.000000         0.000000         0.000000
H       -0.371699        -0.526251        -0.874286
H       -0.356509        -0.524404         0.878626
C        1.519322         0.000000        -0.000000
H        1.861716        -1.013560         0.173240
H        1.890490         0.609052         0.815429
S        2.300427         0.542498        -1.556560
C        2.884831         2.220534        -1.178692
H        3.391302         2.195674        -0.219392
H        3.646981         2.423024        -1.921163
C        1.847697         3.342601        -1.151372
H        2.327431         4.248488        -0.794339
H        1.058004         3.093979        -0.458785
S        0.992900         3.726311        -2.707772
C        2.298473         4.516097        -3.709519
H        3.071654         4.880564        -3.044545
H        1.854258         5.381763        -4.181973
C        2.873880         3.593470        -4.783785
H        3.298440         2.698080        -4.351268
H        2.081686         3.270288        -5.446568
S        4.098780         4.403571        -5.859709
C        5.600964         4.405403        -4.831109
H        6.259373         5.119444        -5.311335
H        5.368239         4.808102        -3.852379
C        6.296563         3.052218        -4.712915
H        6.573452         2.674602        -5.690128
H        7.198556         3.148051        -4.114655
H        5.663138         2.311738        -4.237051
 

