%Mem=61440MB 
%NProc=8 

#P HF/6-31G(d)  SCF(Conver=8,XQC,MaxConventionalCycles=64,MaxCycle=128) NoSymm Test 
   Pop=mk IOp(6/33=2) GFInput GFPrint 

 MEP step - Input generated by PyRED DVE-DMDS-OPLS 

0 1 
C       -3.796579         3.135011         1.589217
H       -2.955752         3.797876         1.771266
H       -4.693729         3.734987         1.483197
H       -3.918501         2.491600         2.453619
C       -3.557299         2.306350         0.342077
H       -3.438024         2.953979        -0.525637
H       -2.654084         1.717482         0.436523
O       -4.675686         1.474403         0.158522
C       -4.750930         0.766317        -1.039209
H       -4.471765         1.394806        -1.882513
H       -5.791859         0.486931        -1.158938
C       -3.913177        -0.498332        -1.060692
H       -4.066184        -1.043951        -0.132298
H       -4.242862        -1.134226        -1.883700
O       -2.565433        -0.169081        -1.221384
C       -1.680361        -1.238716        -1.109109
H       -1.836113        -1.948523        -1.922008
H       -1.827641        -1.764897        -0.169300
C       -0.264507        -0.715622        -1.170216
H       -0.154362        -0.075358        -2.042781
H        0.418128        -1.555808        -1.271492
O        0.000000         0.000000         0.000000
C        1.147974         0.787744         0.000000
H        1.091820         1.393062         0.894519
H        1.149126         1.456207        -0.860010
C        2.457055         0.000000        -0.000000
H        3.270000         0.709663         0.098752
H        2.595589        -0.529214        -0.935569
S        2.501250        -1.191452         1.374405
C        4.228383        -1.756693         1.285420
H        4.244195        -2.696147         1.822918
H        4.484215        -1.976895         0.256545
C        5.235148        -0.778478         1.888531
H        4.976793        -0.551808         2.915298
H        5.224936         0.158048         1.346096
S        6.960823        -1.352029         1.809808
C        6.998373        -2.491165         3.230302
H        6.114623        -3.117773         3.204140
H        6.963005        -1.918092         4.148472
C        8.217615        -3.412820         3.210730
H        8.137151        -4.107280         4.039966
H        8.218237        -3.998361         2.299726
S        9.852453        -2.625673         3.265793
C        9.850936        -1.882814         4.925511
H        9.104870        -1.099558         4.973143
H        9.589715        -2.644101         5.652207
C       11.229169        -1.305272         5.237533
H       11.226031        -0.852138         6.223544
H       11.990193        -2.077237         5.221556
H       11.504719        -0.541994         4.518220
 

