%Mem=61440MB 
%NProc=8 

#P HF/6-31G(d)  SCF(Conver=8,XQC,MaxConventionalCycles=64,MaxCycle=128) NoSymm Test 
   Pop=mk IOp(6/33=2) GFInput GFPrint 

 MEP step - Input generated by PyRED DVE-DMDS-OPLS 

0 1 
C       -0.173849         2.383976         8.136623
H        0.270026         2.639697         9.094095
H        0.126674         3.142237         7.421431
H       -1.253039         2.420568         8.239024
C        0.268670         0.989840         7.712755
H        1.349652         0.955777         7.588192
H        0.005935         0.273889         8.481063
O       -0.360769         0.539206         6.544758
C        0.102730         1.072555         5.342310
H        1.184223         0.978822         5.265721
H       -0.143223         2.127938         5.255058
C       -0.553014         0.281252         4.222308
H       -0.255471        -0.756035         4.300703
H       -1.633307         0.326101         4.323452
O       -0.142982         0.744167         2.964685
C       -0.939565         1.740671         2.384520
H       -0.979183         2.619274         3.025920
H       -1.956150         1.380623         2.245648
C       -0.354102         2.149355         1.045759
H        0.708598         2.332182         1.159138
H       -0.816712         3.079545         0.740334
O       -0.613146         1.256721        -0.000000
C        0.000000         0.000000         0.000000
H       -0.366320        -0.487580        -0.894133
H       -0.325407        -0.589539         0.849426
C        1.527466         0.000000        -0.000000
H        1.856785        -1.025464        -0.128875
H        1.906965         0.330948         0.957962
S        2.371054         1.054120        -1.218761
C        1.693503         0.474717        -2.808677
H        2.514280         0.513582        -3.512771
H        1.406832        -0.564860        -2.715814
C        0.520758         1.319355        -3.305491
H        0.826869         2.349792        -3.429245
H       -0.280348         1.320360        -2.580776
S       -0.218372         0.701444        -4.851327
C        0.976680         1.230938        -6.119402
H        0.745972         0.623355        -6.985007
H        1.982923         0.976318        -5.815016
C        0.882225         2.715165        -6.467029
H       -0.123940         2.970223        -6.770464
H        1.113619         3.322553        -5.601458
S        2.074115         3.248522        -7.734812
C        1.357685         2.592686        -9.274771
H        2.153464         2.693816       -10.003203
H        1.170264         1.531450        -9.165334
C        0.107653         3.318871        -9.762801
H        0.306447         4.373871        -9.910509
H       -0.221022         2.896444       -10.708253
H       -0.712962         3.226700        -9.060126
 

