%Mem=61440MB 
%NProc=8 

#P HF/6-31G(d)  SCF(Conver=8,XQC,MaxConventionalCycles=64,MaxCycle=128) NoSymm Test 
   Pop=mk IOp(6/33=2) GFInput GFPrint 

 MEP step - Input generated by PyRED DVE-DMDS-OPLS 

0 1 
C       -5.446890         0.538205        -1.589217
H       -5.068218        -0.463288        -1.771266
H       -6.524942         0.486698        -1.483197
H       -5.219613         1.152361        -2.453619
C       -4.814609         1.124853        -0.342077
H       -5.046329         0.508447         0.525637
H       -3.737088         1.163714        -0.436523
O       -5.343924         2.414330        -0.158522
C       -5.043307         3.059834         1.039209
H       -5.128159         2.377389         1.882513
H       -5.791153         3.835924         1.158938
C       -3.673442         3.711477         1.060692
H       -3.523222         4.257870         0.132298
H       -3.628058         4.426316         1.883700
O       -2.688418         2.734469         1.221384
C       -1.378558         3.194620         1.109109
H       -1.146035         3.883109         1.922008
H       -1.233453         3.721405         0.169300
C       -0.435120         2.016403         1.170216
H       -0.670864         1.411016         2.042781
H        0.582982         2.384333         1.271492
O       -0.577457         1.266858         0.000000
C       -0.000000         0.000000        -0.000000
H       -0.360217        -0.489701        -0.894519
H       -0.343672        -0.573353         0.860010
C        1.527819         0.000000         0.000000
H        1.858473        -1.027215        -0.098752
H        1.919383         0.382018         0.935569
S        2.180000         0.998084        -1.374405
C        3.951297         0.591889        -1.285420
H        4.449227         1.388689        -1.822918
H        4.284037         0.648658        -0.256545
C        4.309555        -0.765362        -1.888531
H        3.971318        -0.826372        -2.915298
H        3.817932        -1.562540        -1.346096
S        6.083886        -1.163685        -1.809808
C        6.703399        -0.207001        -3.230302
H        6.269255         0.785558        -3.204140
H        6.377618        -0.679790        -4.148472
C        8.223287        -0.045941        -3.210730
H        8.512407         0.590580        -4.039966
H        8.525725         0.455447        -2.299726
S        9.218211        -1.563314        -3.265793
C        8.833894        -2.199035        -4.925511
H        7.790795        -2.485481        -4.973143
H        9.002591        -1.412057        -5.652207
C        9.717023        -3.404507        -5.237533
H        9.480698        -3.791148        -6.223544
H       10.767116        -3.135449        -5.221556
H        9.559576        -4.200580        -4.518220
 

