%Mem=61440MB 
%NProc=8 

#P HF/6-31G(d)  SCF(Conver=8,XQC,MaxConventionalCycles=64,MaxCycle=128) NoSymm Test 
   Pop=mk IOp(6/33=2) GFInput GFPrint 

 MEP step - Input generated by PyRED DVE-DMDS-OPLS 

0 1 
C       -6.641134         2.217653        -6.671918
H       -6.910177         1.428980        -7.367721
H       -7.335922         2.196248        -5.839917
H       -6.742499         3.172553        -7.174883
C       -5.219598         2.029988        -6.180152
H       -5.117603         1.066963        -5.683549
H       -4.523553         2.038066        -7.017177
O       -4.916536         3.077577        -5.301367
C       -3.640891         3.051530        -4.731293
H       -3.337804         4.076602        -4.561210
H       -2.916281         2.598303        -5.402506
C       -3.646077         2.309697        -3.404651
H       -4.342736         2.791136        -2.722131
H       -3.973582         1.280077        -3.538560
O       -2.346098         2.345228        -2.896493
C       -2.179912         1.731712        -1.655197
H       -2.440011         0.675322        -1.710938
H       -2.820373         2.189073        -0.904507
C       -0.725712         1.898004        -1.250404
H       -0.493617         2.951754        -1.168319
H       -0.083035         1.476157        -2.017242
O       -0.495476         1.309356         0.000000
C        0.000000         0.000000        -0.000000
H       -0.371402        -0.563632        -0.850483
H       -0.375880        -0.476232         0.896266
C        1.525830        -0.000000         0.000000
H        1.891586         0.600754         0.822584
H        1.900918         0.448385        -0.911938
S        2.245474        -1.668367         0.062628
C        2.173195        -2.062379         1.840026
H        1.209000        -1.783293         2.242789
H        2.237583        -3.141559         1.890787
C        3.297399        -1.418664         2.648997
H        3.232009        -0.339595         2.597051
H        4.261836        -1.695709         2.245120
S        3.226851        -1.808668         4.426571
C        3.920717        -3.491663         4.497155
H        3.487787        -4.101962         3.715639
H        3.579298        -3.901743         5.437624
C        5.446344        -3.525494         4.420300
H        5.784697        -3.096123         3.486724
H        5.880642        -2.934505         5.216334
S        6.136457        -5.213400         4.487271
C        6.682069        -5.362550         6.217669
H        7.252787        -6.283572         6.234057
H        7.375389        -4.557872         6.432590
C        5.574378        -5.416372         7.264661
H        5.023081        -4.483764         7.313420
H        4.873431        -6.214870         7.050430
H        6.003517        -5.592442         8.247005
 

