%Mem=61440MB 
%NProc=8 

#P HF/6-31G(d)  SCF(Conver=8,XQC,MaxConventionalCycles=64,MaxCycle=128) NoSymm Test 
   Pop=mk IOp(6/33=2) GFInput GFPrint 

 MEP step - Input generated by PyRED DVE-DMDS-OPLS 

0 1 
C       -1.719994         5.956717         5.612501
H       -2.779280         5.729750         5.654571
H       -1.301246         5.839177         6.607136
H       -1.605742         6.990979         5.308710
C       -1.020062         5.039007         4.629853
H        0.045795         5.258349         4.597701
H       -1.128126         4.001877         4.941338
O       -1.583545         5.239426         3.363190
C       -1.067090         4.454298         2.329413
H       -0.016050         4.229179         2.491168
H       -1.145316         5.026632         1.414057
C       -1.852145         3.161963         2.174189
H       -1.812162         2.572023         3.088103
H       -2.896489         3.395016         1.977827
O       -1.292952         2.451584         1.109970
C       -1.934891         1.248100         0.807837
H       -2.971074         1.438410         0.528113
H       -1.936478         0.588902         1.673572
C       -1.231269         0.563170        -0.346443
H       -1.116151         1.264238        -1.168573
H       -1.852453        -0.256566        -0.687795
O        0.000000         0.000000         0.000000
C        1.115600         0.845842        -0.000000
H        1.111959         1.477949         0.881682
H        1.100086         1.490784        -0.873675
C        2.376945        -0.000000         0.000000
H        2.365963        -0.684312         0.840149
H        3.234088         0.652253         0.124037
S        2.697263        -0.933631        -1.525569
C        1.685458        -2.428230        -1.280865
H        1.997430        -2.890386        -0.350196
H        0.648245        -2.147998        -1.189969
C        1.872224        -3.443734        -2.409278
H        1.457758        -4.387431        -2.075446
H        2.923244        -3.619195        -2.605132
S        1.003649        -3.083156        -3.970102
C        2.253687        -2.209249        -4.961143
H        2.734029        -1.462226        -4.343632
H        1.690516        -1.675488        -5.716028
C        3.315146        -3.098429        -5.613129
H        4.126920        -2.476461        -5.976493
H        3.743562        -3.774267        -4.884123
S        2.742900        -4.144673        -6.983227
C        2.705838        -2.942232        -8.347938
H        2.016657        -2.140664        -8.110649
H        3.693245        -2.510287        -8.464958
C        2.274963        -3.631224        -9.639913
H        1.282686        -4.057653        -9.543490
H        2.256458        -2.914437       -10.454582
H        2.961263        -4.427380        -9.906310
 

