%Mem=61440MB 
%NProc=8 

#P HF/6-31G(d)  SCF(Conver=8,XQC,MaxConventionalCycles=64,MaxCycle=128) NoSymm Test 
   Pop=mk IOp(6/33=2) GFInput GFPrint 

 MEP step - Input generated by PyRED DVE-DMDS-OPLS 

0 1 
C       -4.868782         4.500380        -2.197092
H       -5.457339         4.949992        -1.404198
H       -3.998052         5.123759        -2.370125
H       -5.474701         4.500723        -3.098189
C       -4.441928         3.078879        -1.855616
H       -5.313618         2.457786        -1.657869
H       -3.914571         2.643582        -2.694832
O       -3.553710         3.009930        -0.774444
C       -4.099212         3.214056         0.493809
H       -5.028011         2.659703         0.606775
H       -4.311431         4.268059         0.663397
C       -3.105410         2.737616         1.529606
H       -2.141261         3.193919         1.328153
H       -3.430212         3.063187         2.514949
O       -3.021766         1.340996         1.513813
C       -1.746070         0.770613         1.468322
H       -1.823438        -0.216532         1.905552
H       -1.043308         1.340142         2.072066
C       -1.249427         0.640282         0.033220
H       -1.205396         1.608086        -0.453863
H       -1.946492         0.028305        -0.524000
O        0.000000         0.000000        -0.000000
C        1.117333         0.841277        -0.000000
H        1.120436         1.470379         0.889756
H        1.098493         1.493262        -0.868925
C        2.381100         0.000000        -0.000000
H        2.366167        -0.694491         0.830013
H        3.233382         0.653913         0.148348
S        2.769149        -0.875063        -1.542752
C        1.517029        -2.190532        -1.664715
H        0.552075        -1.744891        -1.854181
H        1.812533        -2.745319        -2.547159
C        1.380165        -3.138857        -0.476800
H        0.627462        -3.873974        -0.739301
H        1.020129        -2.602705         0.390763
S        2.932248        -4.001553        -0.071670
C        2.293430        -5.257609         1.076027
H        1.560216        -4.787618         1.723898
H        3.129145        -5.538169         1.704077
C        1.674711        -6.498687         0.427091
H        1.111410        -7.050842         1.170861
H        0.971920        -6.213325        -0.344970
S        2.852742        -7.626249        -0.376367
C        3.508276        -8.563859         1.039492
H        4.415044        -9.024248         0.665709
H        3.810479        -7.873678         1.818665
C        2.571082        -9.633319         1.593468
H        1.652030        -9.205037         1.978484
H        2.308538       -10.351369         0.825445
H        3.053196       -10.165302         2.409114
 

