%Mem=61440MB 
%NProc=8 

#P HF/6-31G(d)  SCF(Conver=8,XQC,MaxConventionalCycles=64,MaxCycle=128) NoSymm Test 
   Pop=mk IOp(6/33=2) GFInput GFPrint 

 MEP step - Input generated by PyRED DVE-DMDS-OPLS 

0 1 
C       -4.235186         4.294245        -3.184032
H       -4.870294         3.546424        -3.646075
H       -4.172740         4.076356        -2.123645
H       -4.714863         5.260630        -3.308455
C       -2.842492         4.318092        -3.798519
H       -2.897197         4.539573        -4.862977
H       -2.251349         5.098199        -3.335259
O       -2.134996         3.124777        -3.592768
C       -2.412162         2.086635        -4.485129
H       -2.114039         2.372175        -5.494542
H       -3.471753         1.849184        -4.501422
C       -1.641689         0.850554        -4.068522
H       -1.724822         0.108752        -4.855229
H       -0.590437         1.102130        -3.955056
O       -2.154801         0.269080        -2.905426
C       -1.590767         0.662386        -1.682032
H       -2.383192         0.674223        -0.944647
H       -1.181973         1.662565        -1.742279
C       -0.529813        -0.342065        -1.252852
H        0.252611        -0.413931        -2.005054
H       -0.982943        -1.320827        -1.160842
O        0.000000         0.000000        -0.000000
C        1.145196         0.807970        -0.000000
H        1.098528         1.426834         0.885897
H        1.143053         1.465841        -0.866901
C        2.439028        -0.000000        -0.000000
H        3.270011         0.674264        -0.178471
H        2.439358        -0.715936        -0.813963
S        2.871876        -0.822444         1.562880
C        1.687751        -2.198630         1.673381
H        1.724174        -2.510935         2.709613
H        0.695963        -1.815324         1.483744
C        1.965687        -3.385411         0.748774
H        2.121056        -3.048381        -0.267853
H        1.095131        -4.031511         0.729007
S        3.427770        -4.384799         1.166541
C        2.776058        -5.467602         2.474884
H        2.162079        -4.886994         3.152500
H        3.639316        -5.800696         3.036447
C        2.006557        -6.673536         1.941052
H        1.174062        -6.351509         1.329981
H        2.659609        -7.280728         1.327083
S        1.397140        -7.669940         3.339090
C        0.744455        -9.136453         2.484119
H        1.522012        -9.540833         1.846075
H        0.574037        -9.860009         3.272438
C       -0.542001        -8.908600         1.695870
H       -1.326147        -8.523040         2.337083
H       -0.395770        -8.206579         0.882451
H       -0.883148        -9.845230         1.263866
 

