%Mem=61440MB 
%NProc=8 

#P HF/6-31G(d)  SCF(Conver=8,XQC,MaxConventionalCycles=64,MaxCycle=128) NoSymm Test 
   Pop=mk IOp(6/33=2) GFInput GFPrint 

 MEP step - Input generated by PyRED DVE-DMDS-OPLS 

0 1 
C       -5.537081         2.024129        -4.507868
H       -5.721416         3.075125        -4.316843
H       -4.536093         1.922723        -4.911358
H       -6.247738         1.676458        -5.251478
C       -5.672275         1.224062        -3.227039
H       -6.680931         1.317788        -2.825078
H       -5.501582         0.168211        -3.427903
O       -4.744216         1.715325        -2.304628
C       -4.761192         1.128504        -1.039163
H       -5.785683         0.949899        -0.713489
H       -4.311074         1.841459        -0.361015
C       -3.980791        -0.170216        -0.955411
H       -4.146427        -0.616723         0.025614
H       -4.332465        -0.883340        -1.699834
O       -2.628062         0.102408        -1.141592
C       -1.803232        -1.018571        -1.145560
H       -2.028622        -1.652865        -2.003365
H       -1.947020        -1.610530        -0.243778
C       -0.362237        -0.570103        -1.222873
H       -0.257364         0.150630        -2.029456
H        0.264513        -1.430523        -1.451324
O        0.000000         0.000000         0.000000
C        1.133541         0.815043        -0.000000
H        1.069887         1.413080         0.898917
H        1.121829         1.492299        -0.849564
C        2.425812        -0.000000        -0.000000
H        2.526420        -0.555901        -0.924225
H        2.409009        -0.719938         0.809741
S        3.928727         1.013839         0.114039
C        3.962251         1.418557         1.891377
H        3.083635         1.985041         2.166270
H        3.958584         0.495653         2.457771
C        5.213980         2.237525         2.196940
H        5.182055         3.176004         1.658136
H        6.104991         1.715145         1.872596
S        5.370559         2.687546         3.952470
C        6.053299         1.166966         4.687104
H        5.516013         0.309756         4.303192
H        5.831382         1.229928         5.744165
C        7.560154         1.018028         4.485941
H        7.821946         1.024467         3.436277
H        8.071387         1.855405         4.942231
S        8.253269        -0.467447         5.276436
C        7.823753        -1.788528         4.098977
H        7.966988        -2.705943         4.657256
H        6.768273        -1.731577         3.860894
C        8.668139        -1.813190         2.828228
H        8.374770        -2.652150         2.203514
H        8.543263        -0.909258         2.242359
H        9.720392        -1.915205         3.066003
 

