%Mem=61440MB 
%NProc=8 

#P HF/6-31G(d)  SCF(Conver=8,XQC,MaxConventionalCycles=64,MaxCycle=128) NoSymm Test 
   Pop=mk IOp(6/33=2) GFInput GFPrint 

 MEP step - Input generated by PyRED DVE-DMDS-OPLS 

0 1 
C       -5.115731        -3.313537         4.107838
H       -4.404653        -2.989551         4.861732
H       -6.077803        -2.866476         4.342593
H       -5.211386        -4.391683         4.176886
C       -4.667191        -2.911428         2.709986
H       -5.398583        -3.240285         1.981335
H       -4.581369        -1.834835         2.624264
O       -3.457293        -3.529567         2.352925
C       -2.276892        -2.874879         2.713654
H       -1.564298        -3.633099         3.022750
H       -2.434876        -2.206861         3.555722
C       -1.681848        -2.098635         1.557915
H       -0.682146        -1.765153         1.816565
H       -1.607257        -2.750055         0.691569
O       -2.511364        -1.003975         1.272677
C       -2.355233        -0.385906         0.031960
H       -3.291218         0.120678        -0.174807
H       -2.190373        -1.122784        -0.749957
C       -1.241937         0.642485        -0.002620
H       -1.331811         1.301764         0.858085
H       -1.345377         1.248204        -0.903288
O        0.000000         0.000000         0.000000
C        1.099807         0.860065         0.000000
H        1.086439         1.500747         0.878321
H        1.071664         1.503672        -0.877147
C        2.353257         0.000000         0.000000
H        2.342594        -0.674599        -0.846902
H        2.370616        -0.606528         0.896473
S        3.899261         0.950612         0.005967
C        4.037656         1.429745        -1.745867
H        3.991294         0.540101        -2.361034
H        3.216181         2.078329        -2.020297
C        5.365278         2.150358        -1.964902
H        6.189286         1.490737        -1.722145
H        5.421837         3.019614        -1.322612
S        5.495354         2.651727        -3.710009
C        7.190248         3.309775        -3.772659
H        7.433560         3.366998        -4.825734
H        7.867109         2.590908        -3.330304
C        7.344983         4.689249        -3.133796
H        6.665231         5.383760        -3.608607
H        7.096036         4.669368        -2.080269
S        9.021792         5.384274        -3.317214
C        9.778419         5.067844        -1.692256
H       10.702944         5.632460        -1.718576
H        9.156813         5.517293        -0.926552
C       10.069260         3.606907        -1.364933
H       10.592956         3.537937        -0.415689
H        9.157249         3.026703        -1.275921
H       10.687351         3.151450        -2.129918
 

