%Mem=61440MB 
%NProc=8 

#P HF/6-31G(d)  SCF(Conver=8,XQC,MaxConventionalCycles=64,MaxCycle=128) NoSymm Test 
   Pop=mk IOp(6/33=2) GFInput GFPrint 

 MEP step - Input generated by PyRED DVE-DMDS-OPLS 

0 1 
C       -8.287933        -0.542869        -2.459821
H       -8.017675        -1.456184        -1.941888
H       -9.013051        -0.010787        -1.854682
H       -8.751732        -0.805770        -3.405492
C       -7.061878         0.318094        -2.690786
H       -6.339035        -0.214254        -3.305998
H       -7.331508         1.228805        -3.222726
O       -6.511281         0.642406        -1.444392
C       -5.352133         1.422624        -1.469423
H       -5.348555         2.031592        -0.574543
H       -5.342255         2.091525        -2.325657
C       -4.104728         0.554263        -1.483849
H       -4.106536        -0.088028        -0.607355
H       -4.091416        -0.087278        -2.362486
O       -3.000773         1.413098        -1.495351
C       -1.741858         0.803419        -1.464206
H       -1.062287         1.454135        -2.000537
H       -1.755209        -0.154450        -1.977214
C       -1.261341         0.609062        -0.030506
H       -1.939105        -0.042805         0.506078
H       -1.248827         1.566575         0.483045
O        0.000000         0.000000        -0.000000
C        1.099877         0.864186         0.000000
H        1.071785         1.503136         0.879628
H        1.099322         1.509747        -0.873454
C        2.350368         0.000000        -0.000000
H        2.376238        -0.594321        -0.904155
H        2.321923        -0.689020         0.833800
S        3.891902         0.961658         0.021622
C        4.089822         1.349256         1.790593
H        4.761760         2.197262         1.817784
H        3.146713         1.678400         2.205486
C        4.656838         0.188358         2.605090
H        5.601104        -0.139379         2.191762
H        3.987027        -0.661169         2.571679
S        4.843005         0.564346         4.377034
C        6.351480         1.584319         4.418781
H        6.316821         2.083916         5.378293
H        6.302475         2.354603         3.660950
C        7.641052         0.777683         4.280704
H        7.689397         0.007358         5.038179
H        7.675269         0.278388         3.320850
S        9.147892         1.796701         4.323843
C        9.316900         2.205381         6.090161
H       10.060412         2.993256         6.111150
H        8.393518         2.640568         6.452600
C        9.758715         1.046323         6.978637
H       10.703173         0.637501         6.639339
H        9.881904         1.390040         8.001814
H        9.029367         0.244032         6.988372
 

