%Mem=61440MB 
%NProc=8 

#P HF/6-31G(d)  SCF(Conver=8,XQC,MaxConventionalCycles=64,MaxCycle=128) NoSymm Test 
   Pop=mk IOp(6/33=2) GFInput GFPrint 

 MEP step - Input generated by PyRED DVE-DMDS-OPLS 

0 1 
C        1.524626         5.914052        -3.779905
H        0.660494         6.565603        -3.703185
H        2.411528         6.540481        -3.764807
H        1.482251         5.403730        -4.736171
C        1.581429         4.901524        -2.643188
H        2.490684         4.318876        -2.719475
H        1.598985         5.411700        -1.681545
O        0.534266         3.972411        -2.671935
C       -0.714947         4.438208        -2.261933
H       -1.148153         5.104502        -3.005302
H       -0.632415         4.985272        -1.325295
C       -1.638031         3.257255        -2.070019
H       -2.657443         3.616007        -1.926194
H       -1.621649         2.639075        -2.964541
O       -1.218776         2.527396        -0.959795
C       -1.900578         1.328787        -0.744492
H       -1.902315         0.722156        -1.647651
H       -2.937442         1.527293        -0.470138
C       -1.225191         0.560207         0.373478
H       -1.861497        -0.268587         0.660050
H       -1.103136         1.206374         1.238200
O        0.000000         0.000000        -0.000000
C        1.118433         0.844271        -0.000000
H        1.101838         1.488340         0.874286
H        1.113441         1.478364        -0.878626
C        2.381582         0.000000         0.000000
H        3.229470         0.652399        -0.173240
H        2.351724        -0.712614        -0.815429
S        2.729524        -0.885079         1.556560
C        2.282925        -2.604929         1.178692
H        2.717815        -2.865701         0.219392
H        2.804048        -3.196795         1.921163
C        0.797141        -2.961480         1.151372
H        0.692596        -3.981208         0.794339
H        0.278755        -2.315954         0.458785
S       -0.126751        -2.805490         2.707772
C        0.519813        -4.187603         3.709519
H        0.960097        -4.920266         3.044545
H       -0.330544        -4.660464         4.181973
C        1.510895        -3.740288         4.783785
H        2.361429        -3.231794         4.351268
H        1.031861        -3.031384         5.446568
S        2.079099        -5.094462         5.859709
C        3.326983        -5.930733         4.831109
H        3.477592        -6.890250         5.311335
H        2.909722        -6.136210         3.852379
C        4.657247        -5.192245         4.712915
H        5.097288        -5.032163         5.690128
H        5.353902        -5.773148         4.114655
H        4.542101        -4.224631         4.237051
 

