%Mem=61440MB 
%NProc=8 

#P HF/6-31G(d)  SCF(Conver=8,XQC,MaxConventionalCycles=64,MaxCycle=128) NoSymm Test 
   Pop=mk IOp(6/33=2) GFInput GFPrint 

 MEP step - Input generated by PyRED DVE-DMDS-OPLS 

0 1 
C       -5.201601        -2.665519        -5.612501
H       -5.954975        -1.887041        -5.654571
H       -4.788348        -2.801119        -6.607136
H       -5.682744        -3.588152        -5.308710
C       -4.109155        -2.293149        -4.629853
H       -3.346077        -3.068954        -4.597701
H       -3.621275        -1.371579        -4.941338
O       -4.688777        -2.145772        -3.363190
C       -3.822559        -1.781330        -2.329413
H       -2.824243        -2.179737        -2.491168
H       -4.206292        -2.213110        -1.414057
C       -3.754813        -0.270750        -2.174189
H       -3.393037         0.196953        -3.088103
H       -4.751987         0.117339        -1.977827
O       -2.894731         0.007808        -1.109970
C       -2.757607         1.364884        -0.807837
H       -3.724196         1.783928        -0.528113
H       -2.391783         1.913261        -1.673572
C       -1.791744         1.541865         0.346443
H       -2.086595         0.895482         1.168573
H       -1.851112         2.568663         0.687795
O       -0.455462         1.323845         0.000000
C        0.000000         0.000000        -0.000000
H       -0.355078        -0.522965        -0.881682
H       -0.372087        -0.527013         0.873675
C        1.518697         0.000000        -0.000000
H        1.890705         0.574468        -0.840149
H        1.867318        -1.019113        -0.124037
S        2.304723         0.597020         1.525569
C        2.296794         2.401878         1.280865
H        2.813300         2.611966         0.350196
H        1.279267         2.746811         1.189969
C        3.017499         3.141280         2.409278
H        3.198860         4.155900         2.075446
H        3.988142         2.701640         2.605132
S        2.095284         3.325558         3.970102
C        2.646771         1.903528         4.961143
H        2.629661         1.015565         4.343632
H        1.881754         1.773875         5.716028
C        4.023592         2.050850         5.613129
H        4.351399         1.082159         5.976493
H        4.755819         2.373556         4.884123
S        4.131024         3.238515         6.983227
C        3.430540         2.260477         8.347938
H        2.411709         1.978580         8.110649
H        4.010053         1.351789         8.464958
C        3.456415         3.072692         9.639913
H        2.869785         3.979511         9.543490
H        3.041830         2.487675        10.454582
H        4.469839         3.351699         9.906310
 

