%Mem=61440MB 
%NProc=8 

#P HF/6-31G(d)  SCF(Conver=8,XQC,MaxConventionalCycles=64,MaxCycle=128) NoSymm Test 
   Pop=mk IOp(6/33=2) GFInput GFPrint 

 MEP step - Input generated by PyRED DVE-DMDS-OPLS 

0 1 
C       -7.489421        -2.056716         3.039089
H       -7.317680        -2.102612         1.969076
H       -7.050672        -2.939009         3.492200
H       -8.562604        -2.084677         3.203051
C       -6.899534        -0.797478         3.659927
H       -7.325844         0.090778         3.196207
H       -7.141863        -0.762364         4.714499
O       -5.501239        -0.749122         3.590044
C       -4.952043        -0.396699         2.357297
H       -5.366592         0.550513         2.014934
H       -5.157435        -1.141779         1.593682
C       -3.448270        -0.289764         2.555544
H       -3.228664         0.447603         3.322008
H       -3.070052        -1.244509         2.895371
O       -2.789461         0.014720         1.357659
C       -2.660982         1.372831         1.048563
H       -2.190166         1.907223         1.869967
H       -3.636367         1.823028         0.869543
C       -1.819235         1.533559        -0.202465
H       -1.917480         2.555318        -0.550609
H       -2.198282         0.873620        -0.979276
O       -0.452553         1.326311        -0.000000
C        0.000000        -0.000000         0.000000
H       -0.347951        -0.503980        -0.901759
H       -0.381055        -0.541845         0.854343
C        1.518443        -0.000000        -0.000000
H        1.889035         0.592781        -0.827855
H        1.865795        -1.016956        -0.144245
S        2.312891         0.552003         1.538886
C        2.202359         2.367891         1.414076
H        2.622855         2.669857         0.462865
H        1.168907         2.673103         1.437890
C        2.974610         2.991031         2.573404
H        4.006329         2.664633         2.578222
H        2.542217         2.678854         3.516366
S        2.900477         4.806458         2.626791
C        3.879790         5.311990         1.180587
H        3.797130         6.391718         1.167521
H        3.408183         4.945194         0.276910
C        5.353253         4.907193         1.163032
H        5.451331         3.829590         1.146343
H        5.788723         5.286698         0.244361
S        6.283841         5.602946         2.563898
C        7.987157         5.449836         1.946965
H        8.061538         5.948592         0.986829
H        8.582617         6.023505         2.647529
C        8.518849         4.022069         1.858310
H        7.959054         3.428596         1.143611
H        9.556648         4.030548         1.536905
H        8.463820         3.528134         2.821472
 

