%Mem=61440MB 
%NProc=8 

#P HF/6-31G(d)  SCF(Conver=8,XQC,MaxConventionalCycles=64,MaxCycle=128) NoSymm Test 
   Pop=mk IOp(6/33=2) GFInput GFPrint 

 MEP step - Input generated by PyRED DVE-DMDS-OPLS 

0 1 
C       -9.329097        -1.074625         0.000012
H      -10.310511        -0.610670         0.000014
H       -9.244690        -1.703926        -0.878757
H       -9.244686        -1.703928         0.878777
C       -8.242166        -0.017946         0.000010
H       -8.331719         0.621362        -0.877383
H       -8.331715         0.621359         0.877406
O       -6.999142        -0.657560         0.000006
C       -5.901326         0.201035         0.000006
H       -5.906853         0.842487         0.878928
H       -5.906856         0.842492        -0.878912
C       -4.650703        -0.652912         0.000004
H       -4.643141        -1.293230         0.879029
H       -4.643145        -1.293227        -0.879024
O       -3.549757         0.205511         0.000003
C       -2.310113        -0.433666         0.000001
H       -2.197454        -1.064186        -0.879031
H       -2.197454        -1.064191         0.879028
C       -1.241640         0.639409         0.000003
H       -1.353809         1.269674         0.879195
H       -1.353810         1.269679        -0.879185
O       -0.000000         0.000000         0.000000
C        1.097591         0.861451         0.000000
H        1.077602         1.502132         0.879039
H        1.077602         1.502131        -0.879040
C        2.350044         0.000000        -0.000000
H        2.348538        -0.632834        -0.878389
H        2.348542        -0.632827         0.878395
S        3.834176         1.048207        -0.000008
C        5.118157        -0.239626         0.000005
H        4.998948        -0.861843         0.878114
H        4.998943        -0.861865        -0.878091
C        6.497191         0.413369        -0.000007
H        6.615788         1.035724         0.878176
H        6.615785         1.035699        -0.878210
S        7.780900        -0.875090         0.000008
C        9.269890         0.169798        -0.000017
H        9.261218         0.803295         0.878135
H        9.261211         0.803262        -0.878194
C       10.514737        -0.712771        -0.000005
H       10.521666        -1.347029         0.877953
H       10.521657        -1.347064        -0.877939
S       12.003668         0.330484        -0.000035
C       13.292296        -0.952189        -0.000012
H       13.167032        -1.576704         0.876753
H       13.167022        -1.576745        -0.876748
C       14.677576        -0.312126        -0.000034
H       15.441074        -1.083163        -0.000021
H       14.823293         0.306405        -0.878621
H       14.823302         0.306446         0.878522
 

