%Mem=61440MB 
%NProc=8 

#P HF/6-31G(d)  SCF(Conver=8,XQC,MaxConventionalCycles=64,MaxCycle=128) NoSymm Test 
   Pop=mk IOp(6/33=2) GFInput GFPrint 

 MEP step - Input generated by PyRED DVE-DMDS-OPLS 

0 1 
C       -3.949453         6.735295        -3.039089
H       -3.781345         6.677492        -1.969076
H       -3.092875         7.222343        -3.492200
H       -4.824209         7.357632        -3.203051
C       -4.163065         5.361243        -3.659927
H       -5.012651         4.862303        -3.196207
H       -4.383717         5.467399        -4.714499
O       -3.029965         4.540480        -3.590044
C       -2.771076         3.941486        -2.357297
H       -3.643819         3.387066        -2.014934
H       -2.525514         4.674308        -1.593682
C       -1.583170         3.013235        -2.555544
H       -1.812633         2.278876        -3.322008
H       -0.736363         3.594187        -2.895371
O       -1.206577         2.392818        -1.357659
C       -1.858195         1.194333        -1.048563
H       -1.765925         0.488126        -1.869967
H       -2.918761         1.365368        -0.869543
C       -1.249571         0.591052         0.202465
H       -1.901511        -0.201803         0.550609
H       -1.195615         1.350186         0.979276
O        0.000000         0.000000         0.000000
C        1.115918         0.847721        -0.000000
H        1.108604         1.460104         0.901759
H        1.102279         1.510000        -0.854343
C        2.375696         0.000000         0.000000
H        2.352217        -0.698696         0.827855
H        3.231626         0.649797         0.144245
S        2.726635        -0.901496        -1.538886
C        1.621153        -2.346340        -1.414076
H        1.801434        -2.831623        -0.462865
H        0.593354        -2.022601        -1.437890
C        1.913962        -3.294463        -2.573404
H        2.952151        -3.599659        -2.578222
H        1.729511        -2.794068        -3.516366
S        0.838936        -4.759246        -2.626791
C        1.369193        -5.725395        -1.180587
H        0.697820        -6.575044        -1.167521
H        1.182700        -5.157792        -0.276910
C        2.817643        -6.212165        -1.163032
H        3.500622        -5.372886        -1.146343
H        2.967060        -6.770137        -0.244361
S        3.201279        -7.308928        -2.563898
C        4.699915        -8.132833        -1.946965
H        4.483177        -8.588152        -0.986829
H        4.873669        -8.941213        -2.647529
C        5.938132        -7.245120        -1.858310
H        5.805023        -6.440221        -1.143611
H        6.794409        -7.831541        -1.536905
H        6.168232        -6.804605        -2.821472
 

