%Mem=61440MB 
%NProc=8 

#P HF/6-31G(d)  SCF(Conver=8,XQC,MaxConventionalCycles=64,MaxCycle=128) NoSymm Test 
   Pop=mk IOp(6/33=2) GFInput GFPrint 

 MEP step - Input generated by PyRED DVE-DMDS-OPLS 

0 1 
C       -5.651840         2.578919         6.671918
H       -5.448864         3.387121         7.367721
H       -6.223335         2.974624         5.839917
H       -6.256072         1.832587         7.174883
C       -4.356723         1.963571         6.180152
H       -3.747546         2.716380         5.683549
H       -3.776928         1.578367         7.017177
O       -4.671914         0.919566         5.301367
C       -3.587111         0.247890         4.731293
H       -3.890038        -0.777229         4.561210
H       -2.732540         0.234328         5.402506
C       -3.188146         0.873327         3.404651
H       -4.034595         0.848014         2.722131
H       -2.903239         1.915538         3.538560
O       -2.116398         0.136737         2.896493
C       -1.643364         0.561306         1.655197
H       -1.287330         1.589339         1.710938
H       -2.429556         0.525649         0.904507
C       -0.513271        -0.368875         1.250404
H       -0.891373        -1.379467         1.168319
H        0.255474        -0.364229         2.017242
O        0.000000         0.000000         0.000000
C        1.127716         0.829557         0.000000
H        1.122434         1.504533         0.850483
H        1.071158         1.433613        -0.896266
C        2.408337         0.000000        -0.000000
H        2.388699        -0.703063        -0.822584
H        2.479370        -0.580254         0.911938
S        3.919383         1.008998        -0.062628
C        4.072934         1.378987        -1.840026
H        3.111958         1.668962        -2.242789
H        4.713699         2.249732        -1.890787
C        4.666501         0.227517        -2.648997
H        4.024955        -0.642589        -2.597051
H        5.626570        -0.064302        -2.245120
S        4.819326         0.593201        -4.426571
C        6.316689         1.628491        -4.497155
H        6.285138         2.376086        -3.715639
H        6.253088         2.158291        -5.437624
C        7.615532         0.827439        -4.420300
H        7.666071         0.283115        -3.486724
H        7.658730         0.095307        -5.216334
S        9.112415         1.868892        -4.487271
C        9.651434         1.697435        -6.217669
H       10.631173         2.160159        -6.234057
H        9.795850         0.645132        -6.432590
C        8.751016         2.344834        -7.264661
H        7.781279         1.861827        -7.313420
H        8.596840         3.396097        -7.050430
H        9.206916         2.259296        -8.247005
 

