%Mem=61440MB 
%NProc=8 

#P HF/6-31G(d)  SCF(Conver=8,XQC,MaxConventionalCycles=64,MaxCycle=128) NoSymm Test 
   Pop=mk IOp(6/33=2) GFInput GFPrint 

 MEP step - Input generated by PyRED DVE-DMDS-OPLS 

0 1 
C       -7.493602         7.504008        -0.000012
H       -8.565136         7.677916        -0.000014
H       -7.067431         7.974670         0.878757
H       -7.067426         7.974669        -0.878777
C       -7.196878         6.017420        -0.000010
H       -7.632960         5.541431         0.877383
H       -7.632955         5.541430        -0.877406
O       -5.810252         5.839987        -0.000006
C       -5.392305         4.510437        -0.000006
H       -5.760372         3.985062        -0.878928
H       -5.760376         3.985060         0.878912
C       -3.877955         4.505291        -0.000004
H       -3.508854         5.028578        -0.879029
H       -3.508859         5.028577         0.879024
O       -3.457331         3.174109        -0.000003
C       -2.073737         2.998231        -0.000001
H       -1.623598         3.453886         0.879031
H       -1.623595         3.453891        -0.879028
C       -1.801513         1.508594        -0.000003
H       -2.251105         1.052871        -0.879195
H       -2.251109         1.052868         0.879185
O       -0.416143         1.331777         0.000000
C        0.000000         0.000000         0.000000
H       -0.379545        -0.516544        -0.879039
H       -0.379545        -0.516543         0.879040
C        1.520111        -0.000000        -0.000000
H        1.877498         0.522259         0.878389
H        1.877498         0.522251        -0.878395
S        2.148898        -1.704702         0.000008
C        3.936617        -1.371264        -0.000005
H        4.191011        -0.791049        -0.878114
H        4.191018        -0.791028         0.878091
C        4.702780        -2.690783         0.000007
H        4.447804        -3.270765        -0.878176
H        4.447816        -3.270742         0.878210
S        6.490630        -2.356674        -0.000008
C        7.125301        -4.061396         0.000017
H        6.759152        -4.578434        -0.878135
H        6.759164        -4.578403         0.878194
C        8.651112        -4.039686         0.000005
H        9.016257        -3.521033        -0.877953
H        9.016270        -3.520999         0.877939
S        9.286661        -5.743028         0.000035
C       11.075284        -5.416474         0.000012
H       11.325991        -4.830934        -0.876753
H       11.326006        -4.830896         0.876748
C       11.853923        -6.728878         0.000034
H       12.919934        -6.526280         0.000021
H       11.623458        -7.321078         0.878621
H       11.623442        -7.321117        -0.878522
 

