%chk=03-IsoP_008_gaussian.chk
%nproc=1
%mem=1000Mb
#p opt pm3

Conformer number 008. Energy MM = 23.486 kcal/mol

0 1
C  -0.9506    1.2941    -0.0868
H  -0.9992    1.2442    1.0065
H  -1.3137    2.3006    -0.3347
C  -1.8867    0.2867    -0.7284
C  -2.2799    0.5966    -2.1511
H  -2.7482    1.5846    -2.2093
H  -1.4016    0.5876    -2.8038
H  -2.9947    -0.1301    -2.5517
C  -2.3857    -0.8018    -0.1089
H  -3.0690    -1.4462    -0.6614
C  -2.1039    -1.2788    1.2810
H  -3.0211    -1.2436    1.8768
H  -1.3378    -0.6991    1.7992
H  -1.7603    -2.3178    1.2467
C  2.6260    -1.6390    1.1882
H  3.7182    -1.6048    1.1182
H  2.3512    -1.9711    2.1947
H  2.2714    -2.3957    0.4804
C  2.0439    -0.2776    0.9106
C  2.5073    0.7975    1.8537
H  1.9795    1.7450    1.7252
H  2.3454    0.4831    2.8905
H  3.5768    0.9852    1.7140
C  1.1729    -0.0990    -0.1018
H  0.8953    -0.9638    -0.7052
C  0.5128    1.1820    -0.5391
H  0.5792    1.2456    -1.6321
H  1.0626    2.0533    -0.1687

