%chk=PET_049_gaussian.chk
%nproc=4
%mem=4000Mb
#p 6-31g* mp2

Conformer number 049. Energy MM = 71.720 kcal/mol

0 1
C  -1.0601    1.2148    -2.6476
C  -2.8463    0.1637    0.5520
H  -2.6909    0.2306    1.6265
C  -1.8846    0.7151    -0.3038
H  -1.0099    1.1938    0.1311
C  -2.0527    0.6480    -1.6939
C  -3.1922    0.0233    -2.2179
H  -3.3394    -0.0384    -3.2953
C  -4.1526    -0.5273    -1.3630
H  -5.0322    -1.0087    -1.7884
C  -3.9861    -0.4610    0.0270
O  -6.0391    -1.6064    0.4501
C  -5.0390    -1.0632    0.8909
O  -4.7221    -0.9144    2.2009
O  -0.0291    1.7862    -1.9795
O  -1.1774    1.1539    -3.8609
C  -5.6647    -1.4596    3.1364
H  -6.0919    -2.4002    2.7700
H  -5.1090    -1.6932    4.0504
C  -6.7457    -0.4403    3.4430
H  -6.3026    0.4919    3.8084
H  -7.3165    -0.1901    2.5431
H  -7.4365    -0.8232    4.1995
C  5.9180    -1.8391    2.6713
C  5.3141    0.9246    0.1349
H  5.7384    1.8888    -0.1418
C  5.8836    0.2036    1.1900
H  6.7406    0.6200    1.7149
C  5.3513    -1.0374    1.5595
C  4.2474    -1.5507    0.8664
H  3.8261    -2.5155    1.1451
C  3.6780    -0.8297    -0.1891
H  2.8218    -1.2520    -0.7103
C  4.2091    0.4132    -0.5607
O  4.0769    2.3165    -2.0015
C  3.6417    1.2248    -1.6721
O  2.5901    0.5870    -2.2402
O  6.9770    -1.2494    3.2523
O  5.5041    -2.9178    3.0530
C  1.9524    1.2856    -3.3274
H  1.4046    0.5271    -3.8948
H  2.7051    1.7143    -3.9991
C  1.0023    2.3630    -2.8043
H  1.5359    3.0753    -2.1677
H  0.5578    2.9325    -3.6287
H  7.2440    -1.8802    3.9538
