%Mem=61440MB 
%NProc=8 

#P B3LYP/6-31G(d) Integral=Ultrafine Opt=(Tight,MaxCycle=55) GFInput GFPrint SCF(Conver=8,XQC,MaxConventionalCycles=64,MaxCycle=128) Test 

 Optimization step - Input generated by PyRED DVE-DMDS-OPLS 

0 1 
C        6.588831         1.515796         2.039650
H        6.908319         0.545588         2.437052
H        7.180868         2.291122         2.540804
H        5.535138         1.662982         2.299237
C        6.782050         1.600047         0.526308
H        6.502637         2.597652         0.170673
H        7.842628         1.445592         0.268940
O        5.965170         0.701712        -0.213400
C        6.375626        -0.657846        -0.212763
H        7.383827        -0.768873         0.213032
H        6.411392        -0.995540        -1.256606
C        5.408827        -1.551894         0.551232
H        5.824577        -2.573988         0.614105
H        5.278430        -1.179537         1.579642
O        4.174304        -1.553753        -0.135151
C        3.107736        -2.154952         0.574788
H        3.055710        -1.760637         1.602682
H        3.247447        -3.249118         0.639900
C        1.801724        -1.849047        -0.144795
H        1.002600        -2.454836         0.296888
H        1.893152        -2.124587        -1.206111
O        1.387124        -0.499287        -0.013315
C        2.015355         0.430017        -0.890972
H        2.078866         0.006056        -1.903990
H        3.039177         0.644119        -0.557227
C        1.208950         1.722006        -0.916462
H        1.787054         2.477116        -1.460000
H        1.058627         2.097614         0.101705
S       -0.426842         1.628396        -1.763671
C       -1.610470         1.532985        -0.361705
H       -1.331385         2.300253         0.372451
H       -2.569002         1.832324        -0.797012
C       -1.728287         0.177037         0.338900
H       -2.376634         0.271378         1.219664
H       -0.740842        -0.144834         0.674545
S       -2.390027        -1.192001        -0.704015
C       -4.123590        -1.321142        -0.097207
H       -4.113658        -1.388879         0.996075
H       -4.483982        -2.282448        -0.475852
C       -5.045671        -0.199505        -0.577189
H       -4.696634         0.780366        -0.236633
H       -5.063298        -0.171032        -1.670593
S       -6.801842        -0.423973        -0.068715
C       -6.756701         0.088566         1.699333
H       -7.707594        -0.272235         2.105569
H       -5.964558        -0.465247         2.215067
C       -6.616745         1.593567         1.925404
H       -7.435679         2.138939         1.446397
H       -6.631710         1.819582         2.999305
H       -5.674689         1.979166         1.520484
 

