%Mem=61440MB 
%NProc=8 

#P B3LYP/6-31G(d) Integral=Ultrafine Opt=(Tight,MaxCycle=55) GFInput GFPrint SCF(Conver=8,XQC,MaxConventionalCycles=64,MaxCycle=128) Test 

 Optimization step - Input generated by PyRED DVE-DMDS-OPLS 

0 1 
C        8.139997         0.837346         1.143043
H        8.750462        -0.067393         1.050655
H        8.250041         1.421487         0.223227
H        8.542724         1.425834         1.975658
C        6.668620         0.512206         1.394673
H        6.557118        -0.079016         2.318120
H        6.097975         1.438055         1.524246
O        6.040713        -0.164395         0.309628
C        6.379937        -1.534465         0.184305
H        6.275692        -2.048714         1.152958
H        7.423539        -1.653651        -0.151181
C        5.465017        -2.203349        -0.837069
H        5.424387        -1.581739        -1.742511
H        5.914014        -3.169670        -1.109778
O        4.152526        -2.473241        -0.342431
C        3.052191        -1.701903        -0.831576
H        2.187592        -2.375636        -0.879153
H        3.253434        -1.346348        -1.852847
C        2.706759        -0.527517         0.094238
H        3.547061         0.172105         0.150303
H        2.521410        -0.917699         1.101089
O        1.509396         0.129528        -0.320272
C        1.704340         1.169011        -1.269154
H        2.147732         0.774391        -2.199440
H        2.392842         1.926375        -0.864974
C        0.356400         1.797554        -1.593955
H       -0.367095         1.025234        -1.872329
H        0.465406         2.462510        -2.457686
S       -0.367399         2.869551        -0.292429
C       -0.942969         1.682672         0.995024
H       -0.080833         1.339327         1.572917
H       -1.573605         2.297889         1.645212
C       -1.719166         0.457363         0.517164
H       -2.083783        -0.068960         1.407311
H       -1.050261        -0.220064        -0.021823
S       -3.159853         0.901745        -0.541150
C       -4.014086        -0.723228        -0.569378
H       -3.276034        -1.502610        -0.800386
H       -4.694696        -0.672962        -1.425348
C       -4.783666        -1.109056         0.700791
H       -5.067373        -2.167186         0.647879
H       -4.149422        -1.002081         1.586385
S       -6.276685        -0.106876         1.068114
C       -7.475251        -0.750988        -0.170526
H       -8.313786        -0.049120        -0.107856
H       -7.052446        -0.641963        -1.175756
C       -7.960410        -2.179705         0.073276
H       -7.140005        -2.903839         0.022579
H       -8.429338        -2.271038         1.057934
H       -8.697124        -2.465015        -0.688496
 

