%Mem=61440MB 
%NProc=8 

#P B3LYP/6-31G(d) Integral=Ultrafine Opt=(Tight,MaxCycle=55) GFInput GFPrint SCF(Conver=8,XQC,MaxConventionalCycles=64,MaxCycle=128) Test 

 Optimization step - Input generated by PyRED DVE-DMDS-OPLS 

0 1 
C        6.478000         3.246000        -0.294000
H        5.751000         3.783000         0.323000
H        7.451000         3.735000        -0.194000
H        6.165000         3.321000        -1.340000
C        6.563000         1.794000         0.129000
H        6.883000         1.716000         1.180000
H        5.590000         1.299000         0.048000
O        7.524000         1.162000        -0.705000
C        7.881000        -0.145000        -0.334000
H        8.066000        -0.211000         0.750000
H        8.821000        -0.362000        -0.853000
C        6.861000        -1.197000        -0.725000
H        6.545000        -1.019000        -1.764000
H        7.322000        -2.199000        -0.678000
O        5.759000        -1.121000         0.148000
C        4.647000        -1.876000        -0.261000
H        4.853000        -2.956000        -0.178000
H        4.392000        -1.659000        -1.308000
C        3.473000        -1.518000         0.618000
H        3.771000        -1.595000         1.675000
H        2.655000        -2.228000         0.433000
O        3.078000        -0.199000         0.312000
C        2.179000         0.375000         1.229000
H        2.087000         1.422000         0.930000
H        2.597000         0.343000         2.248000
C        0.800000        -0.278000         1.246000
H        0.144000         0.328000         1.877000
H        0.844000        -1.282000         1.679000
S        0.131000        -0.379000        -0.448000
C       -1.588000        -0.864000        -0.079000
H       -1.978000        -1.263000        -1.019000
H       -1.591000        -1.687000         0.641000
C       -2.461000         0.284000         0.418000
H       -2.453000         1.111000        -0.298000
H       -2.074000         0.679000         1.361000
S       -4.182000        -0.201000         0.777000
C       -4.845000        -0.237000        -0.924000
H       -4.118000        -0.724000        -1.583000
H       -4.976000         0.788000        -1.283000
C       -6.155000        -1.012000        -1.013000
H       -6.498000        -1.008000        -2.053000
H       -5.992000        -2.054000        -0.725000
S       -7.507000        -0.439000         0.062000
C       -7.761000         1.251000        -0.573000
H       -6.879000         1.859000        -0.355000
H       -7.887000         1.208000        -1.660000
C       -8.993000         1.864000         0.082000
H       -9.146000         2.884000        -0.283000
H       -9.891000         1.282000        -0.143000
H       -8.880000         1.907000         1.169000
 

