%Mem=61440MB 
%NProc=8 

#P B3LYP/6-31G(d) Integral=Ultrafine SCF(Conver=8,XQC,MaxConventionalCycles=64,MaxCycle=128) NoSymm Test 
   Pop=mk IOp(6/33=2) GFInput GFPrint 

 MEP step - Input generated by PyRED DVE-DMDS-OPLS 

0 1 
C       -3.664489        -0.070035         4.520076
H       -3.572338         0.722562         5.271258
H       -4.729486        -0.308030         4.416878
H       -3.151257        -0.962696         4.893103
C       -3.092763         0.346326         3.166898
H       -3.237174        -0.456331         2.438589
H       -3.604167         1.247091         2.791120
O       -1.683943         0.576666         3.188122
C       -1.287106         1.759519         3.856324
H       -1.346111         1.641111         4.950263
H       -1.937467         2.601005         3.570022
C        0.143949         2.092981         3.480627
H        0.511302         2.892518         4.146714
H        0.777454         1.206665         3.641093
O        0.175682         2.526337         2.132824
C        1.442287         2.986600         1.687965
H        1.922459         3.596414         2.472722
H        1.243501         3.634432         0.827956
C        2.414027         1.889762         1.249895
H        2.503744         1.115488         2.026693
H        3.405291         2.352272         1.134556
O        2.076245         1.313950         0.000000
C        1.531001         0.000000        -0.000000
H        1.919112        -0.570620         0.856890
H        1.895125        -0.486392        -0.911539
C        0.000000        -0.000000         0.000000
H       -0.361481         0.542313        -0.879707
H       -0.406105         0.494724         0.885535
S       -0.707369        -1.689296        -0.141175
C       -0.432280        -2.324826         1.566158
H        0.643324        -2.467553         1.728301
H       -0.793334        -1.579084         2.280741
C       -1.124473        -3.673119         1.789609
H       -0.753429        -4.099372         2.727996
H       -0.865999        -4.385366         0.998774
S       -2.955031        -3.627650         1.991840
C       -3.583183        -3.926638         0.284480
H       -3.083958        -3.250581        -0.413200
H       -4.635104        -3.627161         0.334807
C       -3.458162        -5.384057        -0.160795
H       -2.406351        -5.679095        -0.229652
H       -3.932399        -6.055112         0.561537
S       -4.132776        -5.697050        -1.844757
C       -5.947712        -5.682783        -1.536048
H       -6.220398        -4.752435        -1.025955
H       -6.385097        -5.630130        -2.538775
C       -6.479677        -6.902033        -0.783868
H       -6.051678        -6.977099         0.221571
H       -7.569539        -6.834088        -0.674158
H       -6.243721        -7.826317        -1.320268
 

