%Mem=61440MB 
%NProc=8 

#P B3LYP/6-31G(d) Integral=Ultrafine SCF(Conver=8,XQC,MaxConventionalCycles=64,MaxCycle=128) NoSymm Test 
   Pop=mk IOp(6/33=2) GFInput GFPrint 

 MEP step - Input generated by PyRED DVE-DMDS-OPLS 

0 1 
C        6.487026        -3.230333        -0.850483
H        7.536116        -2.965397        -0.680531
H        6.127890        -3.787656         0.021101
H        6.449676        -3.892759        -1.723144
C        5.615549        -1.998857        -1.090371
H        5.979415        -1.432036        -1.962648
H        4.586029        -2.306077        -1.303057
O        5.522954        -1.138849         0.041661
C        6.665786        -0.329479         0.265437
H        6.899826         0.262717        -0.634257
H        7.549697        -0.942956         0.506276
C        6.397807         0.608706         1.434637
H        6.082824         0.018475         2.308343
H        7.337440         1.113241         1.690061
O        5.466738         1.637689         1.154362
C        4.085523         1.308580         1.279246
H        3.626207         1.999269         1.999545
H        3.959766         0.286590         1.652746
C        3.402644         1.477784        -0.080878
H        3.826180         0.760355        -0.796518
H        3.595701         2.489958        -0.450607
O        1.988545         1.342210         0.000000
C        1.522165        -0.000000        -0.000000
H        1.874199        -0.536519         0.896884
H        1.905132        -0.536050        -0.882045
C       -0.000000         0.000000        -0.000000
H       -0.383274         0.588692         0.839655
H       -0.352387        -1.027882         0.141296
S       -0.820324         0.529848        -1.553417
C       -0.478500         2.336937        -1.647822
H        0.575249         2.488129        -1.893276
H       -1.085847         2.665101        -2.497903
C       -0.808067         3.165990        -0.408620
H       -0.640918         4.220584        -0.659950
H       -0.124480         2.906611         0.405418
S       -2.552309         2.953059         0.143694
C       -2.644103         4.351535         1.331222
H       -1.719731         4.364213         1.923488
H       -3.456328         4.098797         2.020072
C       -2.877907         5.735600         0.712646
H       -2.691543         6.512959         1.463880
H       -2.174795         5.916383        -0.106392
S       -4.544258         6.000565        -0.012399
C       -5.539909         6.342032         1.497552
H       -6.577219         6.225174         1.166369
H       -5.356590         5.551035         2.233878
C       -5.327825         7.726463         2.109632
H       -4.293610         7.870035         2.441457
H       -5.559772         8.513520         1.385482
H       -5.976743         7.859369         2.984815
 

