%Mem=61440MB 
%NProc=8 

#P B3LYP/6-31G(d) Integral=Ultrafine SCF(Conver=8,XQC,MaxConventionalCycles=64,MaxCycle=128) NoSymm Test 
   Pop=mk IOp(6/33=2) GFInput GFPrint 

 MEP step - Input generated by PyRED DVE-DMDS-OPLS 

0 1 
C        6.365253        -2.727750         5.977845
H        7.256041        -2.091779         6.001945
H        5.911996        -2.729620         6.975246
H        6.679386        -3.747785         5.734625
C        5.373797        -2.217428         4.945132
H        4.471009        -2.850803         4.927430
H        5.048911        -1.196357         5.201520
O        6.007692        -2.248288         3.672492
C        5.182411        -1.862870         2.588692
H        4.155568        -2.240396         2.713560
H        5.602036        -2.325623         1.689379
C        5.153165        -0.345699         2.397962
H        4.747112         0.156662         3.291326
H        6.180235         0.024351         2.248233
O        4.346754        -0.072565         1.265911
C        4.259771         1.308506         0.958424
H        5.263741         1.714171         0.741328
H        3.848283         1.870996         1.812465
C        3.368410         1.513436        -0.258567
H        3.697684         0.846480        -1.069972
H        3.485201         2.548376        -0.599655
O        1.984814         1.344952         0.000000
C        1.522588         0.000000        -0.000000
H        1.887563        -0.532270         0.889797
H        1.900761        -0.531060        -0.886575
C        0.000000         0.000000         0.000000
H       -0.379000         0.590844         0.841572
H       -0.353354        -1.028104         0.134742
S       -0.800463         0.584535        -1.546315
C       -0.724340         2.412858        -1.323537
H       -1.265498         2.657128        -0.400173
H        0.318312         2.709568        -1.202719
C       -1.377960         3.161256        -2.489339
H       -1.550072         4.196275        -2.174030
H       -2.362023         2.742566        -2.729000
S       -0.381864         3.327698        -4.027696
C       -0.806356         1.804098        -4.963337
H       -0.711159         0.942851        -4.294120
H       -0.014682         1.713582        -5.714166
C       -2.186161         1.801072        -5.631466
H       -2.420505         0.786204        -5.978563
H       -2.963961         2.073182        -4.910975
S       -2.399498         2.954138        -7.043227
C       -1.546119         2.008745        -8.370975
H       -0.499184         1.847454        -8.090747
H       -2.024719         1.027368        -8.470706
C       -1.624327         2.779209        -9.688778
H       -1.140041         3.757731        -9.604434
H       -1.120340         2.218418       -10.484195
H       -2.664172         2.939627        -9.992597
 

