%Mem=61440MB 
%NProc=8 

#P B3LYP/6-31G(d) Integral=Ultrafine SCF(Conver=8,XQC,MaxConventionalCycles=64,MaxCycle=128) NoSymm Test 
   Pop=mk IOp(6/33=2) GFInput GFPrint 

 MEP step - Input generated by PyRED DVE-DMDS-OPLS 

0 1 
C       -7.981163        -5.090334        -0.000039
H       -8.446812        -6.081986        -0.000023
H       -8.321313        -4.546277         0.887025
H       -8.321278        -4.546321        -0.887145
C       -6.466494        -5.215213        -0.000005
H       -6.122549        -5.773898         0.887310
H       -6.122513        -5.773937        -0.887282
O       -5.908354        -3.911518        -0.000023
C       -4.495699        -3.909980        -0.000000
H       -4.095636        -4.424895        -0.888907
H       -4.095666        -4.424867         0.888936
C       -4.038915        -2.458370        -0.000016
H       -4.436317        -1.943120        -0.889087
H       -4.436340        -1.943094         0.889030
O       -2.623880        -2.454593         0.000002
C       -2.069866        -1.153950        -0.000009
H       -2.388292        -0.586254         0.889068
H       -2.388279        -0.586275        -0.889103
C       -0.555345        -1.302211         0.000005
H       -0.236828        -1.869428        -0.889193
H       -0.236842        -1.869417         0.889215
O        0.000000        -0.000000         0.000000
C        1.415983        -0.000000         0.000000
H        1.803327        -0.523544        -0.889169
H        1.803328        -0.523544         0.889168
C        1.868566         1.455873         0.000000
H        1.475155         1.960033         0.888789
H        1.475145         1.960037        -0.888784
S        3.702829         1.537577        -0.000010
C        3.908525         3.365640         0.000000
H        3.422207         3.781955        -0.888483
H        3.422251         3.781939         0.888515
C        5.397806         3.705658        -0.000034
H        5.883641         3.288828        -0.888618
H        5.883687         3.288807         0.888516
S        5.603569         5.534041        -0.000017
C        7.441681         5.622582        -0.000095
H        7.826031         5.110701        -0.888654
H        7.826108         5.110676         0.888416
C        7.877966         7.086673        -0.000093
H        7.491553         7.598162        -0.888348
H        7.491634         7.598136         0.888212
S        9.714866         7.176195        -0.000177
C        9.929300         9.002555        -0.000160
H        9.435741         9.416103        -0.886941
H        9.435827         9.416075         0.886682
C       11.416150         9.356009        -0.000227
H       11.542728        10.444507        -0.000216
H       11.919176         8.956220         0.886467
H       11.919090         8.956247        -0.886981
 

