%Mem=61440MB 
%NProc=8 

#P B3LYP/6-31G(d) Integral=Ultrafine SCF(Conver=8,XQC,MaxConventionalCycles=64,MaxCycle=128) NoSymm Test 
   Pop=mk IOp(6/33=2) GFInput GFPrint 

 MEP step - Input generated by PyRED DVE-DMDS-OPLS 

0 1 
C        2.344129        -1.963238         5.097391
H        1.607137        -2.763484         5.230640
H        2.802321        -1.767763         6.074450
H        1.815425        -1.059629         4.776018
C        3.416881        -2.344360         4.078281
H        4.163690        -1.546147         4.008287
H        3.942507        -3.257330         4.402506
O        2.926256        -2.508677         2.753987
C        2.219853        -3.713481         2.496472
H        2.329749        -4.424728         3.328428
H        2.658529        -4.171937         1.600757
C        0.739279        -3.470219         2.238731
H        0.217044        -4.440281         2.150806
H        0.290987        -2.923899         3.083626
O        0.616474        -2.724340         1.045519
C       -0.683718        -2.224078         0.796001
H       -1.082772        -1.719182         1.690759
H       -1.376138        -3.044575         0.534664
C       -0.616790        -1.227332        -0.352502
H       -1.636713        -0.974503        -0.663146
H       -0.102262        -1.687402        -1.209397
O        0.000000         0.000000         0.000000
C        1.424275         0.000000         0.000000
H        1.799900        -0.530054        -0.887657
H        1.809909        -0.522672         0.885178
C        1.927282         1.437761         0.000000
H        3.009903         1.422941         0.165958
H        1.478651         1.998504         0.827429
S        1.666741         2.377298        -1.565796
C        0.218506         3.437250        -1.172486
H        0.389832         3.897223        -0.190321
H        0.259273         4.237327        -1.918205
C       -1.149915         2.751194        -1.181535
H       -1.917072         3.452389        -0.828274
H       -1.131215         1.895618        -0.504079
S       -1.692404         2.100425        -2.819231
C       -2.915228         3.373762        -3.342157
H       -3.628744         3.537548        -2.527283
H       -3.468091         2.912207        -4.165974
C       -2.294326         4.690141        -3.811527
H       -1.710883         5.164727        -3.016344
H       -1.609749         4.505508        -4.644546
S       -3.528729         5.896283        -4.455368
C       -4.263906         6.557360        -2.901917
H       -5.169075         7.075944        -3.235296
H       -4.593653         5.721611        -2.275040
C       -3.359516         7.510846        -2.121748
H       -3.069723         8.367365        -2.738130
H       -3.880408         7.885513        -1.231317
H       -2.442879         7.015462        -1.783391
 

