%Mem=61440MB 
%NProc=8 

#P B3LYP/6-31G(d) Integral=Ultrafine SCF(Conver=8,XQC,MaxConventionalCycles=64,MaxCycle=128) NoSymm Test 
   Pop=mk IOp(6/33=2) GFInput GFPrint 

 MEP step - Input generated by PyRED DVE-DMDS-OPLS 

0 1 
C        1.400840         2.498421        -8.110103
H        0.919506         2.801113        -9.047434
H        1.134249         3.237839        -7.347128
H        2.486089         2.528839        -8.254292
C        0.954815         1.089386        -7.722747
H       -0.136295         1.061920        -7.565844
H        1.190478         0.387892        -8.530128
O        1.620197         0.572020        -6.577342
C        1.202072         1.125257        -5.344548
H        0.104098         1.098602        -5.250167
H        1.516751         2.175788        -5.243222
C        1.828246         0.273192        -4.239985
H        1.452830        -0.751643        -4.320679
H        2.919982         0.243319        -4.368285
O        1.476667         0.742636        -2.945333
C        2.326317         1.761046        -2.429779
H        2.314183         2.649765        -3.081575
H        3.365517         1.400616        -2.370893
C        1.843469         2.174115        -1.045699
H        0.764769         2.376864        -1.079692
H        2.347238         3.106856        -0.770491
O        2.169071         1.269920         0.000000
C        1.532375        -0.000000         0.000000
H        1.906999        -0.489524         0.905022
H        1.856069        -0.598593        -0.862284
C        0.000000        -0.000000         0.000000
H       -0.332786        -1.035718         0.139330
H       -0.379288         0.328653        -0.972165
S       -0.855287         1.082903         1.215278
C       -0.080872         0.582101         2.811797
H       -0.880550         0.633151         3.556956
H        0.228683        -0.465535         2.746091
C        1.094232         1.478233         3.211475
H        0.763992         2.515807         3.321631
H        1.862522         1.475956         2.434266
S        1.944237         0.928254         4.750085
C        0.761870         1.462798         6.058263
H        1.063621         0.898707         6.946270
H       -0.252172         1.140437         5.804341
C        0.798769         2.966702         6.334069
H        1.812658         3.289266         6.588272
H        0.497301         3.530514         5.445840
S       -0.380515         3.504680         7.640994
C        0.460264         2.932114         9.175848
H       -0.310827         3.024060         9.948174
H        0.689036         1.864566         9.086401
C        1.702748         3.733405         9.562115
H        1.460328         4.792551         9.692776
H        2.119741         3.354896        10.504003
H        2.487010         3.658188         8.801276
 

