%Mem=61440MB 
%NProc=8 

#P B3LYP/6-31G(d) Integral=Ultrafine SCF(Conver=8,XQC,MaxConventionalCycles=64,MaxCycle=128) NoSymm Test 
   Pop=mk IOp(6/33=2) GFInput GFPrint 

 MEP step - Input generated by PyRED DVE-DMDS-OPLS 

0 1 
C       -5.135162        -3.515026        -0.360911
H       -5.645928        -2.848092        -1.062890
H       -4.081502        -3.576851        -0.651752
H       -5.577934        -4.513590        -0.444618
C       -5.266885        -2.994297         1.060698
H       -6.328175        -2.946126         1.359954
H       -4.760796        -3.669506         1.771404
O       -4.688580        -1.699865         1.122884
C       -4.768247        -1.113404         2.408625
H       -4.276988        -1.751914         3.161542
H       -5.824896        -0.993726         2.710001
C       -4.099117         0.254875         2.397615
H       -4.485332         0.841004         1.548706
H       -4.369187         0.775771         3.323864
O       -2.684080         0.213344         2.378904
C       -2.097163        -0.002590         1.102819
H       -2.488901         0.717386         0.367057
H       -2.304740        -1.010163         0.725903
C       -0.598017         0.200674         1.270652
H       -0.204221        -0.520057         2.005191
H       -0.409370         1.211723         1.661792
O        0.000000        -0.000000         0.000000
C        1.417720         0.000000         0.000000
H        1.724797        -0.515594        -0.915140
H        1.801097        -0.577198         0.855998
C        2.000819         1.418458        -0.000000
H        1.697139         1.982467         0.888376
H        1.630682         1.962027        -0.874969
S        3.831448         1.457263        -0.129785
C        4.309378         1.055421         1.604208
H        3.822106         1.764929         2.281260
H        3.975582         0.045432         1.860757
C        5.828247         1.156394         1.734979
H        6.161465         2.173640         1.502619
H        6.311397         0.464887         1.037523
S        6.312401         0.747712         3.464405
C        8.117559         1.103198         3.407318
H        8.428689         1.177276         4.453349
H        8.265171         2.089859         2.955276
C        8.938309         0.028344         2.692573
H        8.812173        -0.934658         3.195644
H        8.611279        -0.106024         1.656971
S       10.748370         0.360180         2.718488
C       10.924321         1.617563         1.384107
H       10.212267         2.431319         1.559906
H       11.923940         2.035589         1.543244
C       10.795381         1.065050        -0.034779
H        9.804624         0.633905        -0.214928
H       10.944295         1.867010        -0.768872
H       11.539959         0.284792        -0.219886
 

