%Mem=61440MB 
%NProc=8 

#P B3LYP/6-31G(d) Integral=Ultrafine SCF(Conver=8,XQC,MaxConventionalCycles=64,MaxCycle=128) NoSymm Test 
   Pop=mk IOp(6/33=2) GFInput GFPrint 

 MEP step - Input generated by PyRED DVE-DMDS-OPLS 

0 1 
C        0.386555        -5.623377         3.771649
H       -0.567178        -5.584481         4.308455
H        0.176484        -5.582298         2.697822
H        0.855481        -6.588823         3.995379
C        1.317987        -4.481777         4.174973
H        1.534018        -4.521990         5.255325
H        2.272468        -4.573401         3.645459
O        0.821167        -3.192732         3.831131
C       -0.176650        -2.691310         4.705640
H        0.228083        -2.603909         5.730052
H       -1.053837        -3.353704         4.744295
C       -0.623964        -1.317104         4.225099
H       -1.210662        -0.845388         5.022298
H        0.263367        -0.692456         4.043201
O       -1.472621        -1.365361         3.088707
C       -0.812990        -1.397356         1.824613
H       -1.471222        -1.939200         1.137504
H        0.132844        -1.945604         1.886803
C       -0.600686         0.023834         1.291465
H       -0.002465         0.616956         1.999771
H       -1.571004         0.519882         1.186309
O        0.000000         0.000000         0.000000
C        1.424755        -0.000000        -0.000000
H        1.735328        -0.536118        -0.902213
H        1.807276        -0.554439         0.871735
C        2.028065         1.407284         0.000000
H        3.108117         1.330755         0.172971
H        1.619290         2.003297         0.824599
S        1.898650         2.340228        -1.578143
C        0.113455         2.779056        -1.635647
H       -0.085649         3.007899        -2.687559
H       -0.461105         1.886524        -1.374140
C       -0.300321         3.951806        -0.741111
H        0.054680         3.801430         0.283280
H       -1.394765         4.005391        -0.688392
S        0.346283         5.599001        -1.242424
C       -0.834922         6.045552        -2.578996
H       -1.000508         5.173947        -3.221635
H       -0.319433         6.796538        -3.185223
C       -2.158392         6.604052        -2.056410
H       -2.650002         5.877714        -1.401634
H       -1.976285         7.516221        -1.478774
S       -3.257881         6.999782        -3.482705
C       -4.635821         7.864316        -2.624673
H       -4.215533         8.688309        -2.036397
H       -5.217464         8.314711        -3.436127
C       -5.525358         6.969013        -1.762701
H       -5.960472         6.159643        -2.357298
H       -4.965790         6.518922        -0.935833
H       -6.343973         7.555725        -1.326878
 

