%Mem=61440MB 
%NProc=8 

#P B3LYP/6-31G(d) Integral=Ultrafine SCF(Conver=8,XQC,MaxConventionalCycles=64,MaxCycle=128) NoSymm Test 
   Pop=mk IOp(6/33=2) GFInput GFPrint 

 MEP step - Input generated by PyRED DVE-DMDS-OPLS 

0 1 
C        0.568669        -7.730078         3.312225
H        0.477452        -7.625337         2.225716
H        1.633619        -7.753920         3.566523
H        0.125105        -8.692968         3.591765
C       -0.130164        -6.594032         4.057564
H       -1.200826        -6.563766         3.794224
H       -0.060711        -6.758037         5.138263
O        0.457582        -5.318486         3.837794
C        0.188729        -4.748057         2.571552
H       -0.896186        -4.754027         2.370768
H        0.680578        -5.297136         1.754290
C        0.731427        -3.318220         2.607672
H        0.228804        -2.748996         3.403573
H        1.799876        -3.352197         2.841329
O        0.612709        -2.659757         1.355313
C       -0.672885        -2.122650         1.081221
H       -1.021432        -1.506027         1.924729
H       -1.413247        -2.924380         0.921141
C       -0.609132        -1.266770        -0.177254
H       -1.634951        -1.058508        -0.502710
H       -0.104333        -1.833647        -0.975696
O        0.000000         0.000000        -0.000000
C        1.423616        -0.000000        -0.000000
H        1.791092        -0.502104        -0.912800
H        1.818121        -0.545556         0.863678
C        1.914674         1.441066         0.000000
H        1.458078         1.995698        -0.827395
H        2.998956         1.444246        -0.156373
S        1.664838         2.373815         1.563599
C       -0.122779         2.821204         1.445917
H       -0.274421         3.388850         0.521147
H       -0.718049         1.909489         1.389364
C       -0.505611         3.653300         2.668001
H        0.131582         4.538117         2.767367
H       -0.378807         3.066177         3.583364
S       -2.272361         4.158724         2.694001
C       -2.334087         5.439624         1.376810
H       -3.398403         5.681907         1.294340
H       -2.024199         4.997892         0.422865
C       -1.525480         6.713312         1.627492
H       -0.455507         6.486705         1.679564
H       -1.677891         7.389780         0.776572
S       -2.066868         7.584692         3.155880
C       -1.452398         9.278456         2.789120
H       -1.870706         9.607147         1.830041
H       -1.907399         9.902101         3.566347
C        0.068399         9.433131         2.806624
H        0.544915         8.829978         2.026250
H        0.346372        10.480322         2.631746
H        0.481968         9.123532         3.771579
 

