%Mem=61440MB 
%NProc=8 

#P B3LYP/6-31G(d) Integral=Ultrafine SCF(Conver=8,XQC,MaxConventionalCycles=64,MaxCycle=128) NoSymm Test 
   Pop=mk IOp(6/33=2) GFInput GFPrint 

 MEP step - Input generated by PyRED DVE-DMDS-OPLS 

0 1 
C       -6.708413        -5.036791         2.021421
H       -7.106121        -4.332810         1.283281
H       -6.836634        -6.051255         1.630557
H       -7.292090        -4.940601         2.943584
C       -5.239541        -4.753521         2.290504
H       -5.116989        -3.737728         2.699397
H       -4.839817        -5.456017         3.040961
O       -4.530740        -4.901817         1.066935
C       -3.126554        -4.753432         1.172421
H       -2.687618        -5.280397         0.318856
H       -2.740995        -5.221331         2.091231
C       -2.693108        -3.286951         1.123365
H       -3.084377        -2.828999         0.202776
H       -3.106388        -2.724997         1.976584
O       -1.274721        -3.272823         1.168571
C       -0.689802        -1.983993         1.264573
H        0.312153        -2.138490         1.679012
H       -1.248993        -1.344641         1.965066
C       -0.595376        -1.286238        -0.099980
H       -1.596696        -1.123523        -0.512230
H       -0.042215        -1.927465        -0.803131
O        0.000000        -0.000000         0.000000
C        1.420358         0.000000        -0.000000
H        1.799025        -0.524152        -0.892510
H        1.831853        -0.513287         0.881151
C        1.869789         1.457481         0.000000
H        1.525366         1.950984         0.913758
H        1.420332         1.990588        -0.843454
S        3.694771         1.648224        -0.020913
C        4.070865         1.425315        -1.811147
H        5.138431         1.186793        -1.841577
H        3.535226         0.554079        -2.199108
C        3.767252         2.667297        -2.650253
H        4.303933         3.538140        -2.262628
H        2.700268         2.907911        -2.613896
S        4.128597         2.446422        -4.442787
C        5.966234         2.577558        -4.480045
H        6.247349         2.158342        -5.451077
H        6.405334         1.930928        -3.714618
C        6.480168         4.011202        -4.339398
H        6.038596         4.657968        -5.103131
H        6.202592         4.429096        -3.366739
S        8.315214         4.138544        -4.388526
C        8.666004         3.921235        -6.183288
H        9.748433         3.758916        -6.221263
H        8.197555         2.995286        -6.534332
C        8.271506         5.108342        -7.060757
H        8.776249         6.022228        -6.732794
H        8.548551         4.915431        -8.104875
H        7.191916         5.291412        -7.035336
 

