%Mem=61440MB 
%NProc=8 

#P B3LYP/6-31G(d) Integral=Ultrafine SCF(Conver=8,XQC,MaxConventionalCycles=64,MaxCycle=128) NoSymm Test 
   Pop=mk IOp(6/33=2) GFInput GFPrint 

 MEP step - Input generated by PyRED DVE-DMDS-OPLS 

0 1 
C       -1.311661        -0.799814        -7.740306
H       -0.325551        -0.536428        -8.139357
H       -1.643117        -1.715639        -8.244017
H       -2.007198         0.007049        -7.992299
C       -1.269865        -1.008390        -6.228464
H       -2.264859        -1.276313        -5.857062
H       -0.592916        -1.837343        -5.970434
O       -0.904326         0.179347        -5.528183
C        0.495319         0.402224        -5.409293
H        0.631311         1.486709        -5.332745
H        1.028989         0.060061        -6.310248
C        1.120424        -0.256350        -4.178645
H        0.862036        -1.327586        -4.143206
H        2.211687        -0.178962        -4.261769
O        0.783477         0.375609        -2.954177
C       -0.507370         0.056270        -2.434638
H       -0.628000        -1.036893        -2.361540
H       -1.293103         0.439548        -3.098017
C       -0.662600         0.683536        -1.057037
H       -1.722286         0.650066        -0.782596
H       -0.364613         1.739772        -1.098237
O        0.000000         0.000000         0.000000
C        1.418782        -0.000000         0.000000
H        1.810780        -0.556709        -0.862207
H        1.690439        -0.554287         0.904665
C        2.105403         1.370065         0.000000
H        1.974181         1.859722        -0.969502
H        3.181426         1.204125         0.132659
S        1.526890         2.615017         1.223935
C        1.616405         1.685828         2.814155
H        2.408430         0.933797         2.745749
H        1.934294         2.414790         3.566041
C        0.282741         1.044558         3.206517
H       -0.057821         0.357554         2.427982
H       -0.493634         1.809161         3.310261
S        0.380282         0.048280         4.752744
C        0.362641         1.357322         6.049917
H        1.053692         2.157280         5.766382
H        0.772779         0.885308         6.947265
C       -1.037222         1.902227         6.338314
H       -1.501233         2.314476         5.436965
H       -1.686970         1.095886         6.690364
S       -1.066354         3.172236         7.671162
C       -0.489876         4.674283         6.774811
H       -0.227573         5.377452         7.572360
H        0.439635         4.441439         6.243605
C       -1.523952         5.292841         5.834879
H       -1.807460         4.603284         5.032423
H       -2.432944         5.566461         6.379344
H       -1.116433         6.196602         5.364329
 

