%Mem=61440MB 
%NProc=8 

#P B3LYP/6-31G(d) Integral=Ultrafine SCF(Conver=8,XQC,MaxConventionalCycles=64,MaxCycle=128) NoSymm Test 
   Pop=mk IOp(6/33=2) GFInput GFPrint 

 MEP step - Input generated by PyRED DVE-DMDS-OPLS 

0 1 
C        0.219914        -7.870166        -0.513518
H        0.670565        -7.288000         0.296604
H       -0.529377        -8.539034        -0.078205
H        1.001515        -8.477802        -0.982891
C       -0.422324        -6.946600        -1.536124
H        0.340889        -6.289842        -1.984043
H       -0.871183        -7.530002        -2.359064
O       -1.425780        -6.190468        -0.876646
C       -2.187721        -5.350764        -1.721593
H       -3.098819        -5.107961        -1.164596
H       -2.479652        -5.883824        -2.642844
C       -1.496919        -4.048034        -2.109155
H       -0.518684        -4.244171        -2.579434
H       -2.118139        -3.526892        -2.859434
O       -1.338241        -3.251001        -0.952763
C       -0.681080        -2.024665        -1.199946
H       -1.237328        -1.411212        -1.928140
H        0.324842        -2.200833        -1.617098
C       -0.596867        -1.280646         0.133352
H       -0.056783        -1.897224         0.867495
H       -1.609874        -1.115708         0.513433
O        0.000000         0.000000        -0.000000
C        1.419519         0.000000         0.000000
H        1.830498        -0.513211        -0.881698
H        1.798976        -0.524223         0.892184
C        1.868079         1.457842         0.000000
H        1.423606         1.989025         0.847261
H        1.516560         1.952507        -0.910475
S        3.692579         1.653223         0.006993
C        4.087748         1.412522         1.790748
H        3.563642         0.532037         2.173663
H        5.157724         1.184241         1.807481
C        3.781798         2.641977         2.647626
H        2.713391         2.877615         2.618188
H        4.318069         3.519564         2.272139
S        4.158746         2.413781         4.433818
C        6.002077         2.496196         4.410461
H        6.300254         3.411101         3.886913
H        6.415908         1.640318         3.870112
C        6.523339         2.499314         5.847569
H        6.091730         3.325990         6.420449
H        6.240887         1.572318         6.356642
S        8.356637         2.562167         5.954781
C        8.697246         4.338920         5.611183
H        9.775403         4.368134         5.420811
H        8.204935         4.625554         4.675449
C        8.327567         5.292608         6.746379
H        7.252871         5.276048         6.957082
H        8.855920         5.028275         7.667510
H        8.594809         6.322341         6.477304
 

