%Mem=61440MB 
%NProc=8 

#P B3LYP/6-31G(d) Integral=Ultrafine SCF(Conver=8,XQC,MaxConventionalCycles=64,MaxCycle=128) NoSymm Test 
   Pop=mk IOp(6/33=2) GFInput GFPrint 

 MEP step - Input generated by PyRED DVE-DMDS-OPLS 

0 1 
C        4.551266         6.691794         4.167985
H        4.248233         5.890935         4.852512
H        5.630271         6.846185         4.291392
H        4.032830         7.608817         4.467412
C        4.222934         6.343193         2.717802
H        4.541716         7.157694         2.057129
H        4.745254         5.433736         2.399945
O        2.816830         6.209545         2.502067
C        2.273865         4.931222         2.784826
H        1.240511         5.094927         3.116419
H        2.811554         4.434337         3.605838
C        2.240356         4.012564         1.572028
H        1.592826         3.148585         1.777119
H        1.814463         4.558767         0.716309
O        3.567169         3.588426         1.271274
C        3.740361         2.966049         0.012194
H        4.808636         3.049516        -0.220324
H        3.176793         3.498460        -0.769878
C        3.364859         1.490214        -0.013403
H        3.813061         0.984227         0.856983
H        3.783530         1.026930        -0.924639
O        1.953045         1.351289        -0.000000
C        1.525063        -0.000000        -0.000000
H        1.903718        -0.532168         0.886704
H        1.915546        -0.522349        -0.889086
C        0.000000        -0.000000         0.000000
H       -0.380862         0.566208        -0.856444
H       -0.367573         0.490390         0.906751
S       -0.737363        -1.677686         0.007511
C       -0.523278        -2.156762        -1.759261
H       -0.945609        -1.370935        -2.394010
H        0.540918        -2.257874        -1.993630
C       -1.244997        -3.480878        -2.005043
H       -2.317527        -3.367653        -1.813609
H       -0.852337        -4.252995        -1.335729
S       -0.998966        -3.981874        -3.760230
C       -2.149350        -5.413863        -3.873082
H       -2.253470        -5.606121        -4.945141
H       -3.133977        -5.111465        -3.503445
C       -1.643541        -6.672012        -3.162978
H       -0.662183        -6.948572        -3.558817
H       -1.524037        -6.508120        -2.086943
S       -2.734547        -8.139461        -3.403613
C       -3.747858        -8.138406        -1.867233
H       -4.244396        -9.114726        -1.885989
H       -3.069498        -8.143529        -1.006349
C       -4.782149        -7.020417        -1.746292
H       -5.385278        -7.161146        -0.840255
H       -4.307212        -6.036145        -1.674305
H       -5.454721        -7.010819        -2.609696
 

