%Mem=61440MB 
%NProc=8 

#P B3LYP/6-31G(d) Integral=Ultrafine SCF(Conver=8,XQC,MaxConventionalCycles=64,MaxCycle=128) NoSymm Test 
   Pop=mk IOp(6/33=2) GFInput GFPrint 

 MEP step - Input generated by PyRED DVE-DMDS-OPLS 

0 1 
C        7.860165        -3.413118         0.566165
H        7.554603        -3.031109        -0.413151
H        8.954623        -3.408114         0.616357
H        7.510536        -4.446657         0.654562
C        7.272727        -2.556715         1.676333
H        7.585501        -2.934255         2.665453
H        7.643949        -1.522433         1.592528
O        5.858460        -2.603628         1.566618
C        5.160780        -1.932068         2.596912
H        5.602157        -2.159868         3.582297
H        4.140606        -2.330078         2.581468
C        5.093706        -0.418088         2.431391
H        4.629299         0.017892         3.333311
H        6.104412         0.014983         2.344922
O        4.329973        -0.113695         1.279891
C        4.237018         1.274209         1.020857
H        5.241875         1.698132         0.842756
H        3.798939         1.806286         1.881958
C        3.375484         1.513384        -0.212288
H        3.723816         0.860570        -1.028011
H        3.507269         2.555162        -0.526973
O        1.983566         1.350009         0.000000
C        1.521740        -0.000000        -0.000000
H        1.914388        -0.547992         0.862936
H        1.880413        -0.507725        -0.912320
C        0.000000         0.000000         0.000000
H       -0.350478        -1.026603        -0.154768
H       -0.384795         0.600869        -0.830373
S       -0.821210         0.502036         1.563814
C       -0.461422         2.302461         1.694287
H       -1.027161         2.612437         2.579084
H        0.604088         2.438630         1.893642
C       -0.841979         3.163976         0.492040
H       -0.199699         2.914182        -0.356612
H       -0.661152         4.214913         0.751115
S       -2.619667         2.986897         0.038971
C       -2.848393         4.522305        -0.943107
H       -2.466995         5.376332        -0.371611
H       -3.932221         4.647359        -1.031780
C       -2.211060         4.465357        -2.331574
H       -1.131986         4.302445        -2.251505
H       -2.642284         3.639129        -2.906433
S       -2.534127         6.050685        -3.216463
C       -1.895601         5.644548        -4.892481
H       -2.390084         4.729976        -5.239947
H       -2.256687         6.463109        -5.524327
C       -0.375496         5.521949        -4.994292
H        0.005871         4.700093        -4.379021
H       -0.080152         5.322577        -6.032287
H        0.114667         6.444611        -4.668004
 

