%Mem=61440MB 
%NProc=8 

#P B3LYP/6-31G(d) Integral=Ultrafine SCF(Conver=8,XQC,MaxConventionalCycles=64,MaxCycle=128) NoSymm Test 
   Pop=mk IOp(6/33=2) GFInput GFPrint 

 MEP step - Input generated by PyRED DVE-DMDS-OPLS 

0 1 
C        4.730964         7.725275         2.715664
H        5.811461         7.771140         2.541519
H        4.233026         8.320924         1.943206
H        4.532282         8.187558         3.689702
C        4.207625         6.289707         2.699947
H        4.716321         5.686797         3.470218
H        3.136496         6.280799         2.927640
O        4.323925         5.653463         1.432697
C        5.638014         5.247207         1.090788
H        6.084322         4.654271         1.906186
H        6.291248         6.117779         0.911286
C        5.597293         4.404444        -0.177471
H        5.024023         4.939331        -0.951032
H        6.625231         4.280834        -0.538980
O        5.093284         3.094554         0.007828
C        3.677100         2.978155         0.008121
H        3.246663         3.458352        -0.884777
H        3.231785         3.453109         0.889333
C        3.360975         1.489573        -0.006758
H        3.809314         1.004586         0.875555
H        3.800590         1.021616        -0.902104
O        1.951013         1.349325         0.000000
C        1.525135         0.000000        -0.000000
H        1.914721        -0.526831         0.887315
H        1.902597        -0.532796        -0.887394
C        0.000000         0.000000         0.000000
H       -0.370701         0.474213        -0.913624
H       -0.377992         0.585827         0.843676
S       -0.721493        -1.687327         0.024110
C       -0.625742        -2.104992         1.816921
H       -0.702684        -3.195779         1.850791
H        0.359705        -1.837523         2.209431
C       -1.736782        -1.456766         2.643994
H       -2.721821        -1.762606         2.277213
H       -1.687626        -0.366280         2.561517
S       -1.638119        -1.774005         4.454911
C       -2.229477        -3.517365         4.591089
H       -2.918070        -3.708575         3.761596
H       -2.814944        -3.565523         5.513598
C       -1.103825        -4.553580         4.642923
H       -0.491368        -4.528531         3.735629
H       -0.438129        -4.338597         5.484196
S       -1.694764        -6.272158         4.920817
C       -2.370139        -6.687444         3.259220
H       -3.209683        -6.024363         3.025123
H       -1.585271        -6.520779         2.512248
C       -2.828786        -8.145400         3.237179
H       -1.997597        -8.825237         3.451052
H       -3.615024        -8.325047         3.978045
H       -3.230575        -8.397880         2.249420
 

