%Mem=61440MB 
%NProc=8 

#P B3LYP/6-31G(d) Integral=Ultrafine SCF(Conver=8,XQC,MaxConventionalCycles=64,MaxCycle=128) NoSymm Test 
   Pop=mk IOp(6/33=2) GFInput GFPrint 

 MEP step - Input generated by PyRED DVE-DMDS-OPLS 

0 1 
C        8.733657         6.283657        -2.021421
H        8.178126         6.871148        -1.283281
H        9.740861         6.107253        -1.630557
H        8.813730         6.869763        -2.943584
C        8.030132         4.963476        -2.290504
H        7.023330         5.145688        -2.699397
H        8.583651         4.374495        -3.040961
O        7.962982         4.242448        -1.066935
C        7.407415         2.944333        -1.172421
H        7.781641         2.369606        -0.318856
H        7.740926         2.438018        -2.091231
C        5.878322         2.962260        -1.123365
H        5.555999         3.471101        -0.202776
H        5.463101         3.522780        -1.976584
O        5.446866         1.611014        -1.168571
C        4.042904         1.431845        -1.264573
H        3.895295         0.428851        -1.679012
H        3.596716         2.154605        -1.965066
C        3.348305         1.547219         0.099980
H        3.487873         2.552027         0.512230
H        3.798062         0.829669         0.803131
O        1.943738         1.357293         0.000000
C        1.525201         0.000000        -0.000000
H        1.914499        -0.516306         0.892510
H        1.894443        -0.544475        -0.881151
C        0.000000        -0.000000         0.000000
H       -0.370100         0.474550        -0.913758
H       -0.376995         0.586591         0.843454
S       -0.720041        -1.687745         0.020913
C       -0.617852        -2.112825         1.811147
H       -0.704501        -3.203276         1.841577
H        0.372537        -1.857696         2.199108
C       -1.715224        -1.456718         2.650253
H       -2.705544        -1.712959         2.262628
H       -1.630746        -0.366207         2.613896
S       -1.610633        -1.867104         4.442787
C       -2.277443        -3.584507         4.480045
H       -1.959676        -3.976670         5.451077
H       -1.788913        -4.194653         3.714618
C       -3.798872        -3.653170         4.339398
H       -4.286803        -3.040622         5.103131
H       -4.116418        -3.264778         3.366739
S       -4.461293        -5.369215         4.388526
C       -4.357000        -5.768464         6.183288
H       -4.520847        -6.850662         6.221263
H       -3.334126        -5.593663         6.534332
C       -5.375152        -5.041678         7.060757
H       -6.397193        -5.254715         6.732794
H       -5.272443        -5.363267         8.104875
H       -5.231971        -3.956077         7.035336
 

