%Mem=61440MB 
%NProc=8 

#P B3LYP/6-31G(d) Integral=Ultrafine SCF(Conver=8,XQC,MaxConventionalCycles=64,MaxCycle=128) NoSymm Test 
   Pop=mk IOp(6/33=2) GFInput GFPrint 

 MEP step - Input generated by PyRED DVE-DMDS-OPLS 

0 1 
C        9.001749         2.194563        -1.619519
H        8.273122         2.931842        -1.972095
H        9.168533         2.360110        -0.550220
H        9.946606         2.360681        -2.148359
C        8.496012         0.783335        -1.868550
H        8.336753         0.610972        -2.946281
H        9.236489         0.039774        -1.527086
O        7.276501         0.609061        -1.163494
C        6.720460        -0.684598        -1.317609
H        7.398596        -1.446383        -0.892045
H        6.575386        -0.922118        -2.383972
C        5.377418        -0.754741        -0.604053
H        5.065976        -1.804801        -0.554917
H        5.493932        -0.390171         0.427110
O        4.343276        -0.065569        -1.290012
C        4.207230         1.322090        -0.975169
H        3.749184         1.785323        -1.856080
H        5.191532         1.778975        -0.818471
C        3.311850         1.585892         0.233977
H        3.395121         2.647068         0.499639
H        3.654235         0.996831         1.101684
O        1.930728         1.362711         0.000000
C        1.525850         0.000000        -0.000000
H        1.908502        -0.509184         0.900471
H        1.916124        -0.533247        -0.874220
C        0.000000         0.000000         0.000000
H       -0.365946         0.476125        -0.915978
H       -0.360073         0.574187         0.858843
S       -0.615968        -1.731202         0.067251
C       -2.394218        -1.473774        -0.324877
H       -2.482211        -0.874223        -1.236722
H       -2.771323        -2.475217        -0.553233
C       -3.190699        -0.843769         0.818809
H       -2.782262         0.140039         1.070091
H       -3.127373        -1.460260         1.721314
S       -4.960064        -0.506842         0.436956
C       -5.722476        -2.185399         0.534317
H       -6.720475        -2.031693         0.954839
H       -5.159736        -2.781879         1.258483
C       -5.840556        -2.894893        -0.818149
H       -6.383516        -2.256298        -1.520947
H       -4.859508        -3.093299        -1.260873
S       -6.780767        -4.480251        -0.743420
C       -5.443014        -5.733166        -0.575959
H       -5.954146        -6.682116        -0.771855
H       -4.726966        -5.584400        -1.392394
C       -4.733339        -5.785410         0.776265
H       -4.023416        -6.622106         0.797411
H       -4.165672        -4.869522         0.971987
H       -5.450027        -5.921190         1.592262
 

