%Mem=61440MB 
%NProc=8 

#P B3LYP/6-31G(d) Integral=Ultrafine SCF(Conver=8,XQC,MaxConventionalCycles=64,MaxCycle=128) NoSymm Test 
   Pop=mk IOp(6/33=2) GFInput GFPrint 

 MEP step - Input generated by PyRED DVE-DMDS-OPLS 

0 1 
C        7.276138         4.724330         0.360911
H        6.853487         5.450312         1.062890
H        6.932711         3.726293         0.651752
H        8.368057         4.754189         0.444618
C        6.844598         5.044146        -1.060698
H        7.203554         6.044049        -1.359954
H        7.276680         4.319345        -1.771404
O        5.427500         5.001424        -1.122884
C        4.915372         5.298085        -2.408625
H        5.319150         4.600952        -3.161542
H        5.206427         6.320883        -2.710001
C        3.395440         5.199436        -2.397615
H        3.000171         5.779497        -1.548706
H        3.016346         5.647272        -3.323864
O        2.895846         3.874875        -2.378904
C        2.872412         3.249935        -1.102819
H        2.355447         3.885995        -0.367057
H        3.883240         3.058836        -0.725903
C        2.114427         1.940656        -1.270652
H        2.631307         1.302406        -2.005191
H        1.107581         2.150585        -1.661792
O        2.072660         1.311251        -0.000000
C        1.533632         0.000000        -0.000000
H        1.893753        -0.480048         0.915140
H        1.921721        -0.574040        -0.855998
C        0.000000        -0.000000         0.000000
H       -0.406191         0.495314        -0.888376
H       -0.362018         0.549009         0.874969
S       -0.731909        -1.678397         0.129785
C       -0.541958        -2.273219        -1.604208
H       -1.012918        -1.552780        -2.281260
H        0.519095        -2.348496        -1.860757
C       -1.212833        -3.639632        -1.734979
H       -2.280376        -3.561061        -1.502619
H       -0.756954        -4.349414        -1.037523
S       -1.018921        -4.242811        -3.464405
C       -2.034045        -5.777245        -3.407318
H       -2.220854        -6.036844        -4.453349
H       -3.002733        -5.538635        -2.955276
C       -1.351967        -6.945026        -2.692573
H       -0.413327        -7.194502        -3.195644
H       -1.103350        -6.693642        -1.656971
S       -2.347081        -8.492987        -2.718488
C       -3.576933        -8.177658        -1.384107
H       -4.058849        -7.209682        -1.559906
H       -4.343629        -8.943270        -1.543244
C       -3.016890        -8.268470         0.034779
H       -2.241430        -7.516042         0.214928
H       -3.815242        -8.101290         0.768872
H       -2.578322        -9.253791         0.219886
 

