%Mem=61440MB 
%NProc=8 

#P B3LYP/6-31G(d) Integral=Ultrafine SCF(Conver=8,XQC,MaxConventionalCycles=64,MaxCycle=128) NoSymm Test 
   Pop=mk IOp(6/33=2) GFInput GFPrint 

 MEP step - Input generated by PyRED DVE-DMDS-OPLS 

0 1 
C        9.175052         7.462467         0.000039
H       10.260232         7.612750         0.000023
H        8.756494         7.948789        -0.887025
H        8.756526         7.948743         0.887145
C        8.844666         5.979004         0.000005
H        9.276066         5.484715        -0.887310
H        9.276093         5.484669         0.887282
O        7.434052         5.833030         0.000023
C        7.013231         4.484509         0.000000
H        7.386175         3.949626         0.888907
H        7.386157         3.949663        -0.888936
C        5.491457         4.479232         0.000016
H        5.117404         5.011674         0.889087
H        5.117386         5.011703        -0.889030
O        5.067793         3.129103        -0.000002
C        3.661318         2.986164         0.000009
H        3.213738         3.458758        -0.889068
H        3.213754         3.458739         0.889103
C        3.353305         1.495900        -0.000005
H        3.800400         1.023361         0.889193
H        3.800394         1.023378        -0.889215
O        1.944937         1.352155        -0.000000
C        1.524597         0.000000        -0.000000
H        1.909557        -0.525299         0.889169
H        1.909557        -0.525300        -0.889168
C        0.000000         0.000000        -0.000000
H       -0.364649         0.525339        -0.888789
H       -0.364650         0.525349         0.888784
S       -0.622529        -1.727326         0.000010
C       -2.429250        -1.381083        -0.000000
H       -2.682433        -0.793102         0.888483
H       -2.682431        -0.793149        -0.888515
C       -3.196039        -2.702296         0.000034
H       -2.942221        -3.289968         0.888618
H       -2.942214        -3.290019        -0.888516
S       -5.003086        -2.356022         0.000017
C       -5.633286        -4.084993         0.000095
H       -5.258574        -4.603972         0.888654
H       -5.258574        -4.604053        -0.888416
C       -7.160893        -4.066991         0.000093
H       -7.534618        -3.546159         0.888348
H       -7.534617        -3.546244        -0.888212
S       -7.791670        -5.794514         0.000177
C       -9.599359        -5.457120         0.000160
H       -9.847750        -4.863046         0.886941
H       -9.847749        -4.863137        -0.886682
C      -10.378257        -6.772023         0.000227
H      -11.455264        -6.569771         0.000216
H      -10.145814        -7.371053        -0.886467
H      -10.145815        -7.370963         0.886981
 

