%Mem=61440MB 
%NProc=8 

#P B3LYP/6-31G(d) Integral=Ultrafine SCF(Conver=8,XQC,MaxConventionalCycles=64,MaxCycle=128) NoSymm Test 
   Pop=mk IOp(6/33=2) GFInput GFPrint 

 MEP step - Input generated by PyRED DVE-DMDS-OPLS 

0 1 
C        9.400221        -1.167910         0.513518
H        8.711271        -1.427430        -0.296604
H       10.259865        -0.648454         0.078205
H        9.751133        -2.093644         0.982891
C        8.706366        -0.282468         1.536124
H        7.854202        -0.818791         1.984043
H        9.395970        -0.025025         2.359064
O        8.278767         0.898980         0.876646
C        7.700267         1.874169         1.721593
H        7.736137         2.816383         1.164596
H        8.295606         1.996428         2.642844
C        6.251991         1.597023         2.109155
H        6.151774         0.604365         2.579434
H        5.936583         2.344031         2.859434
O        5.443538         1.679754         0.952763
C        4.078172         1.412296         1.199946
H        3.655427         2.124351         1.928140
H        3.950727         0.399047         1.617098
C        3.342287         1.550608        -0.133352
H        3.772772         0.853083        -0.867495
H        3.482549         2.567326        -0.513433
O        1.942744         1.356749         0.000000
C        1.525289        -0.000000         0.000000
H        1.894945        -0.543731         0.881698
H        1.914741        -0.516841        -0.892184
C        0.000000        -0.000000         0.000000
H       -0.376983         0.581030        -0.847261
H       -0.369416         0.481447         0.910475
S       -0.723294        -1.686363        -0.006993
C       -0.609447        -2.134844        -1.790748
H        0.386233        -1.892848        -2.173663
H       -0.705921        -3.224640        -1.807481
C       -1.694562        -1.480864        -2.647626
H       -1.605582        -0.390404        -2.618188
H       -2.691051        -1.735339        -2.272139
S       -1.587311        -1.908251        -4.433818
C       -2.208170        -3.645834        -4.410461
H       -3.170307        -3.661768        -3.886913
H       -1.511840        -4.293064        -3.870112
C       -2.364444        -4.143128        -5.847569
H       -3.027637        -3.487495        -6.420449
H       -1.395376        -4.145779        -6.356642
S       -2.963657        -5.876875        -5.954781
C       -4.762009        -5.679912        -5.611183
H       -5.106998        -6.701803        -5.420811
H       -4.891189        -5.125078        -4.675449
C       -5.564810        -5.046118        -6.746379
H       -5.232934        -4.023815        -6.957082
H       -5.467544        -5.628844        -7.667510
H       -6.627599        -4.998718        -6.477304
 

