%Mem=61440MB 
%NProc=8 

#P B3LYP/6-31G(d) Integral=Ultrafine SCF(Conver=8,XQC,MaxConventionalCycles=64,MaxCycle=128) NoSymm Test 
   Pop=mk IOp(6/33=2) GFInput GFPrint 

 MEP step - Input generated by PyRED DVE-DMDS-OPLS 

0 1 
C        3.072553        -1.516566        -5.097391
H        4.071281        -1.085183        -5.230640
H        2.736736        -1.884503        -6.074450
H        2.394228        -0.719126        -4.776018
C        3.078042        -2.654995        -4.078281
H        2.077991        -3.096317        -4.008287
H        3.766219        -3.452623        -4.402506
O        3.395158        -2.246156        -2.753987
C        4.765649        -1.977241        -2.496472
H        5.400705        -2.315845        -3.328428
H        5.053524        -2.542702        -1.600757
C        5.024960        -0.499393        -2.238731
H        6.113059        -0.326796        -2.150806
H        4.657326         0.104161        -3.083626
O        4.361477        -0.137167        -1.045519
C        4.318638         1.255286        -0.796001
H        3.973846         1.798684        -1.690759
H        5.321763         1.637912        -0.534664
C        3.355707         1.521266         0.352502
H        3.453868         2.567463         0.663146
H        3.620057         0.883674         1.209397
O        1.993546         1.344375        -0.000000
C        1.523211        -0.000000         0.000000
H        1.899488        -0.529591         0.887657
H        1.889215        -0.536601        -0.885178
C        0.000000         0.000000         0.000000
H       -0.343523        -1.026781        -0.165958
H       -0.381136         0.608636        -0.827429
S       -0.800792         0.556186         1.565796
C       -1.323036         2.273203         1.172486
H       -1.813781         2.263383         0.190321
H       -2.091692         2.498929         1.918205
C       -0.223577         3.338302         1.181535
H       -0.632099         4.293976         0.828274
H        0.577828         3.038117         0.504079
S        0.569830         3.635457         2.819231
C       -0.228264         5.210173         3.342157
H       -0.147240         5.937748         2.527283
H        0.389969         5.579602         4.165974
C       -1.675835         5.058806         3.811527
H       -2.316466         4.664816         3.016344
H       -1.727626         4.351663         4.644546
S       -2.406680         6.622263         4.455368
C       -2.787896         7.534503         2.901917
H       -2.978476         8.560145         3.235296
H       -1.890140         7.569764         2.275040
C       -3.986547         6.995716         2.121748
H       -4.890714         7.005026         2.738130
H       -4.168183         7.611112         1.231317
H       -3.821652         5.966911         1.783391
 

