%Mem=61440MB 
%NProc=8 

#P B3LYP/6-31G(d) Integral=Ultrafine SCF(Conver=8,XQC,MaxConventionalCycles=64,MaxCycle=128) NoSymm Test 
   Pop=mk IOp(6/33=2) GFInput GFPrint 

 MEP step - Input generated by PyRED DVE-DMDS-OPLS 

0 1 
C        7.823280         2.652201        -4.667824
H        8.645253         1.966527        -4.438611
H        6.981284         2.062641        -5.044406
H        8.149356         3.338572        -5.457186
C        7.414563         3.425877        -3.424532
H        8.259158         4.028600        -3.046891
H        6.600005         4.127625        -3.667077
O        7.008914         2.490584        -2.438171
C        6.686943         3.055287        -1.181660
H        7.434802         3.813081        -0.891288
H        6.734036         2.233702        -0.459350
C        5.299174         3.682143        -1.107487
H        5.197801         4.205646        -0.139844
H        5.166555         4.439241        -1.899573
O        4.330174         2.661888        -1.226568
C        3.004767         3.146504        -1.207796
H        2.815673         3.800214        -2.077747
H        2.812518         3.738110        -0.297166
C        2.046861         1.971503        -1.252478
H        2.350593         1.288719        -2.061169
H        1.036362         2.346308        -1.484219
O        2.078206         1.308386         0.000000
C        1.534109        -0.000000        -0.000000
H        1.909933        -0.473490         0.912388
H        1.906845        -0.580041        -0.857809
C        0.000000        -0.000000         0.000000
H       -0.388865         0.423552        -0.931870
H       -0.378297         0.616159         0.823378
S       -0.734222        -1.679727         0.097801
C       -0.486384        -2.061711         1.886425
H        0.579474        -2.079134         2.128888
H       -0.959518        -1.271963         2.480234
C       -1.108500        -3.422556         2.197883
H       -0.598941        -4.211828         1.636604
H       -2.163487        -3.449681         1.906091
S       -0.948149        -3.899434         3.966799
C       -2.335008        -2.954574         4.729038
H       -2.336115        -1.934884         4.331007
H       -2.087571        -2.881701         5.791860
C       -3.696213        -3.629412         4.551740
H       -3.934745        -3.782007         3.494526
H       -3.688004        -4.616772         5.022107
S       -5.072567        -2.711125         5.358252
C       -5.410471        -1.382212         4.128472
H       -6.015668        -0.655263         4.680338
H       -4.470482        -0.879798         3.874577
C       -6.146074        -1.847741         2.872569
H       -6.336660        -0.996251         2.207140
H       -5.561651        -2.582081         2.307734
H       -7.105401        -2.307402         3.129217
 

