%chk=IsoP_uff_007_gaussian.chk
%nproc=4
%mem=4000Mb
#p 6-31g* mp2

Conformer number 007. Energy MM = 60.402 kcal/mol

0 1
C          2.28350        1.29870       -9.09410
H          2.06430        0.27680       -9.47760
H          2.14070        2.00440       -9.93990
C          3.71790        1.39460       -8.60890
C          4.24370        2.72900       -8.13720
H          5.11090        3.03500       -8.75950
H          3.47050        3.52040       -8.22570
H          4.55190        2.66100       -7.07300
C          4.49120        0.28300       -8.61250
H          4.06800       -0.65550       -8.95980
C          5.92370        0.22300       -8.15740
H          6.31860        1.19710       -7.80870
H          6.00500       -0.50340       -7.32210
H          6.55500       -0.12800       -8.99970
C          0.82830       -1.12800       -5.22410
H          1.81400       -0.89360       -4.76740
H          0.04460       -0.98100       -4.45170
H          0.83490       -2.19320       -5.53650
C          0.52880       -0.25600       -6.41640
C         -0.78010       -0.46480       -7.13480
H         -0.58740       -0.75190       -8.19030
H         -1.36770       -1.27850       -6.65880
H         -1.38710        0.46440       -7.10340
C          1.43140        0.66630       -6.81620
H          2.36570        0.75440       -6.26820
C          1.25690        1.60270       -7.99330
H          0.25000        1.51720       -8.44920
H          1.36150        2.64660       -7.63100

