%chk=IsoP_uff_006_gaussian.chk
%nproc=4
%mem=4000Mb
#p 6-31g* mp2

Conformer number 006. Energy MM = 70.726 kcal/mol

0 1
C          2.15490        1.39450       -8.95630
H          1.83120        0.40080       -9.34040
H          2.06280        2.10980       -9.79200
C          3.60950        1.36790       -8.53440
C          4.25830        2.66350       -8.10580
H          5.11550        2.89390       -8.77290
H          3.54580        3.51200       -8.17440
H          4.60880        2.58570       -7.05560
C          4.29520        0.20130       -8.56130
H          3.78770       -0.70520       -8.87990
C          5.74170        0.04390       -8.17300
H          6.22160        0.99020       -7.85520
H          5.81430       -0.67790       -7.33340
H          6.30730       -0.35620       -9.03970
C         -2.26180        2.76890       -9.17700
H         -2.73820        1.83390       -8.81150
H         -2.77900        3.63080       -8.70560
H         -2.40040        2.82150      -10.27720
C         -0.79050        2.82710       -8.85520
C         -0.02840        4.05740       -9.28810
H          0.77150        3.80970      -10.00770
H         -0.70500        4.77960       -9.79250
H          0.40920        4.56280       -8.40210
C         -0.21330        1.81220       -8.16770
H         -0.83430        0.98400       -7.83630
C          1.24240        1.75400       -7.77120
H          1.52800        2.70480       -7.27520
H          1.36220        0.93950       -7.02330

