%chk=IsoP_uff_001_gaussian.chk
%nproc=4
%mem=4000Mb
#p 6-31g* mp2

Conformer number 001. Energy MM = 54.133 kcal/mol

0 1
C          2.12690        1.20280       -8.94650
H          1.84490        0.14770       -9.15680
H          1.91920        1.79750       -9.86220
C          3.60450        1.26980       -8.60650
C          4.51270        2.12820       -9.45630
H          5.30040        1.49930       -9.92210
H          3.95720        2.63500      -10.27240
H          4.98430        2.91460       -8.83020
C          4.07960        0.55980       -7.55570
H          3.39300       -0.05230       -6.97780
C          5.51540        0.54030       -7.10270
H          6.18300        1.17660       -7.71580
H          5.56630        0.89830       -6.05370
H          5.89490       -0.50160       -7.14430
C         -2.60990        2.17560       -7.75390
H         -2.74080        1.76950       -8.77970
H         -3.19160        1.54370       -7.05070
H         -3.01690        3.20860       -7.73390
C         -1.16440        2.19950       -7.33040
C         -0.83200        2.73050       -5.95770
H         -0.15860        3.60910       -6.04060
H         -1.75170        3.04770       -5.42200
H         -0.33650        1.94090       -5.35490
C         -0.20320        1.75430       -8.16910
H         -0.48960        1.37630       -9.14780
C          1.26260        1.76340       -7.80780
H          1.57410        2.81100       -7.60370
H          1.40970        1.15530       -6.89060

