%chk=IsoP_uff_002_gaussian.chk
%nproc=4
%mem=4000Mb
#p 6-31g* mp2

Conformer number 002. Energy MM = 54.474 kcal/mol

0 1
C          2.14460        1.25990       -8.95950
H          1.79140        0.24170       -9.23120
H          1.99120        1.91090       -9.84730
C          3.62470        1.24170       -8.61510
C          4.35820       -0.07950       -8.61110
H          4.77270       -0.27770       -7.60030
H          3.68630       -0.92340       -8.87200
H          5.18180       -0.05760       -9.35520
C          4.25360        2.40450       -8.32470
H          3.68780        3.33130       -8.34870
C          5.70850        2.53330       -7.96120
H          6.25010        1.56730       -7.94820
H          6.20730        3.20060       -8.69440
H          5.78840        2.98750       -6.95180
C          0.90520        0.23830       -4.23490
H          1.61070       -0.59470       -4.44360
H          1.30080        0.82200       -3.37740
H         -0.07610       -0.19830       -3.95450
C          0.72970        1.14850       -5.42250
C         -0.19880        2.32920       -5.28730
H         -1.01910        2.25580       -6.03170
H         -0.65190        2.36210       -4.27380
H          0.36170        3.27420       -5.44650
C          1.39700        0.89960       -6.56980
H          2.05620        0.03630       -6.61630
C          1.27370        1.77110       -7.79940
H          0.21410        1.77690       -8.13390
H          1.56330        2.81240       -7.54570

