%chk=IsoP_uff_005_gaussian.chk
%nproc=4
%mem=4000Mb
#p 6-31g* mp2

Conformer number 005. Energy MM = 54.563 kcal/mol

0 1
C          2.12210        1.26260       -8.96120
H          1.79150        0.23440       -9.22190
H          1.96020        1.90100       -9.85850
C          3.59170        1.21730       -8.57820
C          4.02280        0.34710       -7.42060
H          4.47860        0.97480       -6.62550
H          3.16510       -0.20080       -6.98100
H          4.75710       -0.40960       -7.76770
C          4.48400        1.95330       -9.28310
H          4.13180        2.56260      -10.11070
C          5.96420        2.00790       -9.01340
H          6.28330        1.38020       -8.15840
H          6.50950        1.66590       -9.91710
H          6.25210        3.05740       -8.79680
C          1.42870        5.28820       -6.09180
H          2.26230        5.64200       -6.73610
H          0.57230        5.98310       -6.21640
H          1.76960        5.31790       -5.03570
C          0.99500        3.88810       -6.43780
C         -0.12900        3.27030       -5.64430
H          0.22720        2.35310       -5.13020
H         -0.50210        3.97610       -4.87240
H         -0.97340        3.01270       -6.31740
C          1.61350        3.21430       -7.43170
H          2.42270        3.70060       -7.97100
C          1.23830        1.80340       -7.82550
H          1.32600        1.14070       -6.94040
H          0.17970        1.78960       -8.16380

