%chk=PET_uff_083_gaussian.chk
%nproc=4
%mem=4000Mb
#p 6-31g* mp2

Conformer number 083. Energy MM = 177.288 kcal/mol

0 1
C         -1.43800        0.03750        2.38950
C         -1.51500       -0.33420       -1.38790
H         -1.86490       -1.06010       -2.11130
C         -1.69330       -0.60070       -0.02740
H         -2.17770       -1.52450        0.26360
C         -1.25300        0.31570        0.94370
C         -0.63150        1.50420        0.52380
H         -0.28100        2.23050        1.24670
C         -0.44980        1.76860       -0.83660
H          0.03620        2.69170       -1.12680
C         -0.88820        0.85230       -1.80720
O         -1.07850        0.33630       -4.09130
C         -0.68600        1.13440       -3.25000
O         -0.05140        2.27340       -3.63150
O         -1.04920        0.96490        3.30460
O         -1.95330       -1.01290        2.74880
C          0.21500        2.60480       -4.94440
H          0.85560        1.82220       -5.40720
H         -0.73590        2.68560       -5.51510
C          0.94520        3.93780       -4.99470
H          1.90100        3.86900       -4.43280
H          0.31500        4.73430       -4.54530
H          1.16630        4.20450       -6.04970
C          3.58330        8.00030        3.41400
C          3.40140        4.83170        5.49670
H          3.95170        4.38070        6.31370
C          3.82280        6.07070        5.00420
H          4.68730        6.54370        5.45350
C          3.13710        6.68820        3.94370
C          2.01990        6.04190        3.38950
H          1.47060        6.49080        2.57090
C          1.59510        4.80580        3.88510
H          0.73050        4.33360        3.43530
C          2.28280        4.18620        4.94270
O          2.46910        2.30110        6.33450
C          1.82950        2.87110        5.45950
O          0.69190        2.31460        4.97040
O          2.92440        8.57780        2.38560
O          4.55140        8.56670        3.90170
C          0.22630        1.06190        5.31630
H          0.94240        0.28500        4.97040
H          0.11520        0.99010        6.42110
C         -1.14010        0.83480        4.67910
H         -1.84440        1.60460        5.06110
H         -1.52310       -0.16420        4.98240
H          3.20210        9.43110        2.02260

