%chk=PET_uff_103_gaussian.chk
%nproc=4
%mem=4000Mb
#p 6-31g* mp2

Conformer number 103. Energy MM = 182.378 kcal/mol

0 1
C         -1.78380        0.09510        2.51250
C         -3.86720       -0.07900       -0.65400
H         -4.12820       -0.82160       -1.39760
C         -3.02260       -0.44760        0.39670
H         -2.65320       -1.46480        0.43670
C         -2.66340        0.48540        1.38450
C         -3.16340        1.79540        1.29650
H         -2.90730        2.53690        2.04320
C         -4.01150        2.16310        0.24830
H         -4.38580        3.17850        0.21330
C         -4.37500        1.22950       -0.73690
O         -5.59710        0.80310       -2.69710
C         -5.28820        1.61980       -1.83900
O         -5.79510        2.87950       -1.87980
O         -1.41650        1.02700        3.43090
O         -1.39440       -1.06070        2.61550
C         -6.68890        3.31970       -2.83460
H         -6.23540        3.23420       -3.84630
H         -7.61480        2.70480       -2.79410
C         -7.04600        4.77320       -2.56590
H         -6.13320        5.40420       -2.61270
H         -7.50600        4.87190       -1.55950
H         -7.77010        5.12830       -3.32910
C         -8.22460        4.59530        6.18430
C         -4.83450        2.89670        6.03150
H         -3.79540        3.18450        6.12760
C         -5.81760        3.88120        6.16210
H         -5.51060        4.90150        6.35760
C         -7.17880        3.55200        6.04270
C         -7.53440        2.21690        5.78680
H         -8.57460        1.93130        5.68980
C         -6.55050        1.23200        5.65110
H         -6.85640        0.21240        5.45330
C         -5.18940        1.56210        5.77370
O         -4.44370       -0.62520        5.34880
C         -4.13640        0.52520        5.63040
O         -2.83430        0.86640        5.82190
O         -9.53080        4.26770        6.07510
O         -7.91270        5.75740        6.40120
C         -1.73800        0.05200        5.59940
H         -1.21190       -0.11310        6.56320
H         -2.03060       -0.94100        5.19470
C         -0.78520        0.75380        4.63010
H          0.12880        0.14430        4.45870
H         -0.47520        1.71720        5.08810
H        -10.22760        4.93330        6.16650

