%chk=PET_uff_086_gaussian.chk
%nproc=4
%mem=4000Mb
#p 6-31g* mp2

Conformer number 086. Energy MM = 190.627 kcal/mol

0 1
C         -1.50520        0.36190        2.36610
C         -3.66800        0.04110       -0.73230
H         -3.90170       -0.71890       -1.46760
C         -2.75940       -0.26340        0.28490
H         -2.31810       -1.25230        0.31100
C         -2.43800        0.69280        1.26400
C         -3.03910        1.96030        1.20150
H         -2.81430        2.71590        1.94360
C         -3.94330        2.26600        0.18200
H         -4.39200        3.25190        0.16370
C         -4.27110        1.30980       -0.79360
O         -5.54290        0.79630       -2.70100
C         -5.24430        1.63750       -1.86330
O         -5.80350        2.87440       -1.90490
O         -1.28000        1.26380        3.35780
O         -0.97070       -0.73810        2.40500
C         -6.73320        3.27190       -2.84320
H         -6.30280        3.17950       -3.86430
H         -7.64120        2.63410       -2.76780
C         -7.11590        4.72210       -2.59300
H         -6.21740        5.37040       -2.67350
H         -7.55330        4.83100       -1.57780
H         -7.86420        5.04800       -3.34570
C         -5.60240       -5.96430        2.21180
C         -5.27660       -3.31460        4.91370
H         -5.80940       -3.01650        5.80800
C         -5.75870       -4.39840        4.17240
H         -6.64990       -4.90950        4.51420
C         -5.09760       -4.81510        3.00340
C         -3.94600       -4.12540        2.59310
H         -3.41280       -4.42020        1.69760
C         -3.46570       -3.04310        3.33390
H         -2.57820       -2.53810        2.98850
C         -4.12320       -2.62370        4.50190
O         -4.18430       -1.11170        6.30040
C         -3.60960       -1.46650        5.27940
O         -2.52070       -0.78430        4.83610
O         -4.95510       -6.35440        1.09230
O         -6.60570       -6.56610        2.56720
C         -2.01200        0.34650        5.44580
H         -2.81040        1.11910        5.51220
H         -1.66260        0.09990        6.47170
C         -0.85030        0.92600        4.62910
H          0.00790        0.22000        4.58240
H         -0.50510        1.84880        5.14110
H         -5.26580       -7.10190        0.56200

