%chk=PET_uff_161_gaussian.chk
%nproc=4
%mem=4000Mb
#p 6-31g* mp2

Conformer number 161. Energy MM = 230.887 kcal/mol

0 1
C         -1.67090        0.18170        2.36130
C         -0.61030       -0.96120       -1.09130
H         -0.90400       -1.71920       -1.80510
C         -1.32700       -0.85160        0.10250
H         -2.15310       -1.52670        0.28210
C         -0.96330        0.10860        1.06290
C          0.11640        0.96540        0.79910
H          0.42390        1.70980        1.52180
C          0.83660        0.85110       -0.39210
H          1.67640        1.51490       -0.55550
C          0.48620       -0.11860       -1.34550
O          0.97330       -1.11070       -3.41660
C          1.28020       -0.26380       -2.58840
O          2.37210        0.51970       -2.78010
O         -1.28770        1.10570        3.27460
O         -2.52790       -0.64200        2.64570
C          3.22370        0.40300       -3.85860
H          3.67260       -0.61470       -3.87450
H          2.66280        0.57250       -4.80320
C          4.33430        1.43450       -3.74010
H          4.90750        1.27050       -2.80260
H          3.90270        2.45760       -3.72860
H          5.02440        1.34240       -4.60520
C          5.84280        5.67680        2.90950
C          2.89960        3.30500        3.23670
H          1.84140        3.31380        3.00750
C          3.66480        4.42830        2.91240
H          3.17680        5.27330        2.44230
C          5.03750        4.46710        3.21070
C          5.63310        3.34730        3.81610
H          6.68820        3.34720        4.05940
C          4.87010        2.21700        4.12780
H          5.35460        1.37550        4.60700
C          3.49170        2.18980        3.85420
O          3.18200        0.01070        4.68830
C          2.65990        1.02320        4.24130
O          1.30860        1.13490        4.19190
O          7.14610        5.73020        3.26090
O          5.32640        6.64370        2.36760
C          0.41280        0.19060        4.65320
H          0.48400       -0.73600        4.04140
H          0.64030       -0.05510        5.71300
C         -0.99630        0.78390        4.58250
H         -1.00990        1.71170        5.19270
H         -1.75120        0.08310        5.00160
H          7.67970        6.52200        3.10280

