%chk=PET_uff_146_gaussian.chk
%nproc=4
%mem=4000Mb
#p 6-31g* mp2

Conformer number 146. Energy MM = 195.005 kcal/mol

0 1
C         -1.37000       -0.04840        2.39360
C         -0.52430       -0.99860       -1.18090
H         -0.86720       -1.71050       -1.92140
C         -1.16200       -0.96130        0.06300
H         -1.98000       -1.64510        0.25160
C         -0.73640       -0.06040        1.05520
C          0.32880        0.81010        0.77270
H          0.68240        1.51310        1.51730
C          0.97040        0.76650       -0.46590
H          1.79970        1.43980       -0.64520
C          0.55590       -0.14230       -1.45340
O          0.89970       -0.98590       -3.61950
C          1.27020       -0.20760       -2.75110
O          2.36900        0.56680       -2.94710
O         -0.96460        0.86010        3.31870
O         -2.23200       -0.87130        2.67180
C          3.16810        0.50750       -4.06910
H          3.58170       -0.51860       -4.18020
H          2.57500        0.76520       -4.97370
C          4.32000        1.48940       -3.92010
H          4.91990        1.23580       -3.01990
H          3.92810        2.52340       -3.81620
H          4.97560        1.43830       -4.81480
C          1.90860        8.76350        5.37300
C          0.70740        5.19490        4.90730
H         -0.13920        4.69300        4.45550
C          0.77370        6.58880        4.83970
H         -0.02220        7.12430        4.33720
C          1.84790        7.28170        5.42370
C          2.86050        6.54860        6.06590
H          3.70090        7.05350        6.52550
C          2.79580        5.15290        6.13090
H          3.58660        4.61670        6.64060
C          1.71450        4.46140        5.55730
O          2.48630        2.34190        6.22500
C          1.61430        2.98400        5.65470
O          0.51780        2.35900        5.15550
O          2.93060        9.42260        5.96110
O          1.02750        9.39890        4.81170
C          0.20400        1.03220        5.37030
H          1.00560        0.37040        4.97290
H          0.09410        0.85660        6.46260
C         -1.12070        0.71910        4.68440
H         -1.89350        1.42960        5.04790
H         -1.43440       -0.31460        4.95140
H          2.97980       10.38910        5.95200

