%chk=PET_uff_061_gaussian.chk
%nproc=4
%mem=4000Mb
#p 6-31g* mp2

Conformer number 061. Energy MM = 197.655 kcal/mol

0 1
C         -1.45610        0.13790        2.44490
C         -0.29220       -1.13580       -0.92980
H         -0.45550       -2.00570       -1.55300
C         -0.99650       -1.02980        0.27210
H         -1.67950       -1.82340        0.54850
C         -0.79150        0.06920        1.12230
C          0.11140        1.07360        0.73280
H          0.29820        1.92900        1.37010
C          0.80970        0.97120       -0.47260
H          1.51300        1.75180       -0.73520
C          0.62580       -0.14180       -1.30980
O          2.18880        0.59210       -2.90250
C          1.40840       -0.28690       -2.56000
O          1.29720       -1.42640       -3.28990
O         -1.10010        1.12390        3.30660
O         -2.20630       -0.75890        2.80630
C          2.05060       -1.70230       -4.41170
H          1.84940       -0.94420       -5.19960
H          3.13200       -1.68460       -4.15130
C          1.69350       -3.08550       -4.93240
H          0.61720       -3.12480       -5.20320
H          1.90040       -3.84870       -4.15160
H          2.30260       -3.31700       -5.83130
C          5.45230       -2.04860       -0.23220
C          4.79580       -0.04360        2.92680
H          5.37180        0.52500        3.64610
C          5.46370       -0.66310        1.86560
H          6.53970       -0.55940        1.79450
C          4.75030       -1.40040        0.90310
C          3.35610       -1.51090        1.03040
H          2.77690       -2.07130        0.30690
C          2.68990       -0.89390        2.09230
H          1.61580       -0.99720        2.15840
C          3.39960       -0.14890        3.04950
O          3.28780        1.19720        4.97820
C          2.67480        0.53310        4.15330
O          1.32060        0.46690        4.19680
O          4.75280       -2.74110       -1.15780
O          6.66660       -1.95490       -0.34220
C          0.51100        1.23410        5.01310
H          0.71100        1.01900        6.08520
H          0.71060        2.30980        4.81150
C         -0.94610        0.93920        4.66850
H         -1.62400        1.61720        5.22830
H         -1.17020       -0.11080        4.96400
H          5.19060       -3.16610       -1.90920

