%chk=PET_uff_043_gaussian.chk
%nproc=4
%mem=4000Mb
#p 6-31g* mp2

Conformer number 043. Energy MM = 177.396 kcal/mol

0 1
C         -1.47240        0.04860        2.35040
C         -2.76740        0.00740       -1.21450
H         -3.13040       -0.72960       -1.91960
C         -2.37100       -0.41730        0.05530
H         -2.43970       -1.47120        0.29510
C         -1.89130        0.50400        1.00120
C         -1.81980        1.86320        0.64910
H         -1.45780        2.59900        1.35690
C         -2.21870        2.28990       -0.62310
H         -2.15300        3.34340       -0.86490
C         -2.69540        1.36600       -1.56900
O         -3.52000        0.99480       -3.73620
C         -3.11350        1.81350       -2.92160
O         -3.03890        3.12840       -3.25590
O         -0.98040        0.94370        3.24790
O         -1.56590       -1.13520        2.64940
C         -3.37490        3.62050       -4.50160
H         -2.72450        3.15750       -5.27610
H         -4.43800        3.38460       -4.72800
C         -3.18350        5.12870       -4.52770
H         -2.12430        5.38210       -4.31000
H         -3.83780        5.60820       -3.76920
H         -3.44880        5.52140       -5.53220
C         -7.00890        6.53570        4.85250
C         -6.14860        3.01900        6.00110
H         -6.63170        2.21190        6.53770
C         -6.85770        4.20480        5.78210
H         -7.87090        4.28360        6.15600
C         -6.26420        5.27460        5.08810
C         -4.94870        5.13290        4.61770
H         -4.46270        5.93750        4.08030
C         -4.24200        3.94850        4.83370
H         -3.22950        3.87260        4.45670
C         -4.83280        2.87900        5.52810
O         -4.56540        0.69860        6.37040
C         -4.06850        1.62760        5.74720
O         -2.81930        1.51920        5.23100
O         -6.42300        7.55540        4.18720
O         -8.15550        6.66140        5.25760
C         -2.00540        0.41370        5.35400
H         -1.76890        0.23390        6.42550
H         -2.52280       -0.48210        4.94860
C         -0.71140        0.66730        4.57800
H         -0.02430       -0.20280        4.66110
H         -0.20560        1.55040        5.02330
H         -6.88970        8.38720        4.02280

