%chk=PET_uff_136_gaussian.chk
%nproc=4
%mem=4000Mb
#p 6-31g* mp2

Conformer number 136. Energy MM = 185.088 kcal/mol

0 1
C         -1.55260        0.31170        2.55940
C         -4.37270        2.02430        0.68880
H         -5.10610        2.79560        0.89020
C         -3.45820        1.68940        1.69160
H         -3.51090        2.21110        2.63900
C         -2.49610        0.68870        1.47670
C         -2.46360        0.03520        0.23100
H         -1.73710       -0.74340        0.03450
C         -3.38370        0.36530       -0.76980
H         -3.34070       -0.16510       -1.71300
C         -4.35090        1.36070       -0.55050
O         -6.16880        2.57500       -1.41040
C         -5.34190        1.69320       -1.60460
O         -5.35030        0.99460       -2.77030
O         -1.69150        0.86890        3.79340
O         -0.71130       -0.55490        2.36280
C         -6.26920        1.19620       -3.78100
H         -7.29800        1.02360       -3.39350
H         -6.19120        2.23820       -4.16070
C         -6.00110        0.22330       -4.91810
H         -6.08660       -0.82210       -4.55200
H         -4.98070        0.38490       -5.32550
H         -6.74310        0.38170       -5.72890
C          1.84200        8.72380        4.98140
C          2.99070        5.11220        5.17930
H          3.91930        4.57930        5.34180
C          3.00890        6.50960        5.18460
H          3.95090        7.01810        5.34940
C          1.82560        7.23980        4.97970
C          0.62380        6.54150        4.77260
H         -0.30440        7.07550        4.61160
C          0.60470        5.14320        4.77170
H         -0.33750        4.63440        4.61040
C          1.78790        4.41310        4.97310
O          2.80970        2.30450        5.11470
C          1.76590        2.92910        4.97520
O          0.58370        2.26700        4.86200
O          0.70080        9.41640        4.77470
O          2.88760        9.32990        5.16770
C          0.47390        0.89040        4.89420
H          0.99920        0.44130        4.02470
H          0.94550        0.51010        5.82740
C         -0.99910        0.48050        4.92650
H         -1.47000        0.96390        5.80890
H         -1.08970       -0.62030        5.05740
H          0.69110       10.38410        4.76880

