%chk=PET_uff_187_gaussian.chk
%nproc=4
%mem=4000Mb
#p 6-31g* mp2

Conformer number 187. Energy MM = 189.122 kcal/mol

0 1
C         -1.74910        0.05740        2.52760
C         -3.89120       -0.08210       -0.60170
H         -4.17620       -0.82330       -1.33780
C         -3.01160       -0.45270        0.41850
H         -2.64380       -1.47070        0.44240
C         -2.63230        0.47200        1.40770
C         -3.13620        1.78220        1.34040
H         -2.86470        2.51770        2.08710
C         -4.01580        2.15360        0.31770
H         -4.39910        3.16650        0.30140
C         -4.41120        1.22290       -0.65800
O         -5.74540        0.77380       -2.53780
C         -5.38390        1.60280       -1.71350
O         -5.89860        2.86060       -1.73910
O         -1.46520        0.93790        3.52670
O         -1.35820       -1.10010        2.59280
C         -6.93090        3.24900       -2.56800
H         -6.65810        3.07160       -3.63140
H         -7.84460        2.66380       -2.32250
C         -7.21860        4.72910       -2.36930
H         -6.32120        5.32720       -2.63460
H         -7.48990        4.92720       -1.31060
H         -8.06280        5.03730       -3.02160
C          5.81810        5.63900        2.38890
C          4.89200        2.10810        3.42580
H          5.40200        1.16980        3.60540
C          5.64560        3.21950        3.03870
H          6.71730        3.10980        2.92840
C          5.02200        4.45620        2.79870
C          3.62910        4.55680        2.95420
H          3.11960        5.49550        2.77820
C          2.87520        3.44500        3.34120
H          1.80390        3.55540        3.45450
C          3.49790        2.20920        3.58090
O          3.25080       -0.03420        4.22440
C          2.69640        1.03390        3.99940
O          1.35040        1.15130        4.15310
O          5.20760        6.82270        2.16190
O          7.03020        5.55200        2.25410
C          0.55190        0.13680        4.63990
H          0.63510       -0.76170        3.99400
H          0.89900       -0.13760        5.66040
C         -0.90110        0.60770        4.74830
H         -0.92730        1.50510        5.40260
H         -1.51710       -0.18150        5.23220
H          5.70830        7.60650        1.89410

