%chk=PET_uff_081_gaussian.chk
%nproc=4
%mem=4000Mb
#p 6-31g* mp2

Conformer number 081. Energy MM = 183.107 kcal/mol

0 1
C         -1.82050        0.30450        2.35100
C         -2.16890        0.14900       -1.42830
H         -2.81870       -0.32230       -2.15470
C         -2.42100       -0.05190       -0.06670
H         -3.25790       -0.67420        0.22480
C         -1.59270        0.53580        0.90420
C         -0.51370        1.33350        0.48590
H          0.14630        1.79880        1.20770
C         -0.26090        1.53190       -0.87220
H          0.58430        2.14570       -1.15850
C         -1.08170        0.93940       -1.84450
O         -1.50680        0.62720       -4.13410
C         -0.78920        1.13890       -3.28520
O          0.29300        1.87300       -3.65350
O         -0.97370        0.87750        3.24220
O         -2.72580       -0.42650        2.72930
C          0.68120        2.07850       -4.96090
H          0.89610        1.10230       -5.44780
H         -0.12850        2.59770       -5.51910
C          1.93860        2.93450       -4.98780
H          2.75810        2.42310       -4.43890
H          1.74000        3.91790       -4.51140
H          2.25760        3.10000       -6.03840
C          5.80640        5.58190        2.37130
C          4.96860        2.10140        3.63950
H          5.49790        1.18380        3.86350
C          5.69360        3.20050        3.16850
H          6.76450        3.10430        3.04220
C          5.04180        4.41020        2.86600
C          3.65110        4.49410        3.03980
H          3.11970        5.41060        2.81560
C          2.92620        3.39450        3.50630
H          1.85470        3.49330        3.62850
C          3.57670        2.18720        3.81350
O          3.36030       -0.01660        4.60910
C          2.79580        1.02700        4.30920
O          1.44540        1.12430        4.38940
O          5.16900        6.74110        2.09490
O          7.01660        5.50900        2.21490
C          0.60090        0.11630        4.80870
H          0.78560       -0.80010        4.20510
H          0.77490       -0.11150        5.88260
C         -0.83930        0.55870        4.57950
H         -1.05690        1.46050        5.19020
H         -1.53000       -0.25610        4.88900
H          5.64930        7.51870        1.77620

