%chk=PET_uff_186_gaussian.chk
%nproc=4
%mem=4000Mb
#p 6-31g* mp2

Conformer number 186. Energy MM = 220.440 kcal/mol

0 1
C         -1.32790        0.04580        2.40520
C         -0.63570       -0.79650       -1.23040
H         -1.03740       -1.45660       -1.98900
C         -1.24840       -0.76210        0.02620
H         -2.10560       -1.39890        0.20690
C         -0.74070        0.06410        1.04410
C          0.37820        0.86880        0.77270
H          0.79740        1.51210        1.53620
C          0.99210        0.83140       -0.48020
H          1.86460        1.45000       -0.64910
C          0.49940       -0.00880       -1.49190
O          0.76210       -0.80830       -3.68590
C          1.19160       -0.07930       -2.80130
O          2.33370        0.63060       -2.99180
O         -0.75230        0.79920        3.38020
O         -2.23250       -0.73360        2.66770
C          3.11780        0.54940       -4.12350
H          3.47570       -0.49540       -4.25690
H          2.52970        0.85380       -5.01630
C          4.32030        1.46810       -3.97170
H          4.91750        1.16900       -3.08370
H          3.98260        2.51860       -3.84520
H          4.96140        1.40030       -4.87560
C         -0.87500       -3.19270       12.36420
C         -3.09840       -1.22700        9.98880
H         -4.12330       -0.87970        9.95220
C         -2.66420       -1.94530       11.10940
H         -3.36520       -2.13400       11.91240
C         -1.34140       -2.41970       11.18720
C         -0.46250       -2.15620       10.12600
H          0.56130       -2.50790       10.15300
C         -0.89430       -1.43880        9.01000
H         -0.18880       -1.26080        8.20790
C         -2.21680       -0.96820        8.92590
O         -3.81280        0.14850        7.59510
C         -2.65640       -0.23120        7.71540
O         -1.75520       -0.02570        6.72640
O          0.39450       -3.65310       12.41300
O         -1.63550       -3.42420       13.29400
C         -2.01760        0.43700        5.45610
H         -2.73240       -0.25810        4.97240
H         -2.45940        1.45700        5.48830
C         -0.67880        0.45630        4.71710
H         -0.19510       -0.54270        4.79520
H         -0.01780        1.18950        5.22780
H          0.71970       -4.16630       13.16600

