%chk=PET_uff_116_gaussian.chk
%nproc=4
%mem=4000Mb
#p 6-31g* mp2

Conformer number 116. Energy MM = 185.750 kcal/mol

0 1
C         -1.36860       -0.01780        2.41770
C         -0.98450        2.00250       -0.77890
H         -0.85830        3.04000       -1.06390
C         -1.11640        1.68280        0.57910
H         -1.08960        2.48080        1.31050
C         -1.27210        0.34420        0.98290
C         -1.30400       -0.66200        0.00440
H         -1.41950       -1.70230        0.28180
C         -1.15880       -0.34500       -1.34460
H         -1.17020       -1.15100       -2.06810
C         -0.99210        0.98690       -1.75250
O         -0.70440        2.44880       -3.57490
C         -0.80590        1.29220       -3.19130
O         -0.69200        0.26250       -4.06980
O         -1.15210        0.92680        3.37190
O         -1.56580       -1.18360        2.73450
C         -0.46740        0.39750       -5.42290
H         -1.32060        0.92850       -5.89700
H          0.46890        0.97230       -5.59520
C         -0.31520       -0.98580       -6.03810
H         -1.23790       -1.58140       -5.87200
H          0.54360       -1.51420       -5.57050
H         -0.13100       -0.89740       -7.12900
C          1.94090        8.80670        4.95490
C          3.01600        5.19790        5.43900
H          3.91820        4.66170        5.70620
C          3.05760        6.59350        5.36530
H          3.99140        7.09950        5.57700
C          1.90570        7.32540        5.02680
C          0.71380        6.63190        4.75960
H         -0.19090        7.16580        4.49710
C          0.67270        5.23790        4.83150
H         -0.26300        4.73380        4.62330
C          1.82160        4.50580        5.17410
O          2.75280        2.38920        5.59150
C          1.76110        3.02760        5.26360
O          0.59310        2.39010        4.99340
O          0.82400        9.49740        4.63760
O          2.97750        9.41220        5.18680
C          0.39020        1.03800        5.17210
H          1.12730        0.45640        4.57400
H          0.51540        0.78480        6.24730
C         -1.01900        0.66640        4.72610
H         -1.77020        1.25520        5.29410
H         -1.17940       -0.40870        4.95970
H          0.82280       10.46390        4.59050

