%chk=PET_uff_099_gaussian.chk
%nproc=4
%mem=4000Mb
#p 6-31g* mp2

Conformer number 099. Energy MM = 188.152 kcal/mol

0 1
C         -1.55360        0.18300        2.35610
C         -3.62140        0.10940       -0.81960
H         -3.80870       -0.58220       -1.63120
C         -2.73990       -0.27080        0.19420
H         -2.27130       -1.24550        0.13840
C         -2.46900        0.59570        1.26590
C         -3.10230        1.84970        1.30590
H         -2.91920        2.53630        2.12270
C         -3.99220        2.22650        0.29560
H         -4.46980        3.19670        0.35580
C         -4.25990        1.36000       -0.77870
O         -5.80630        2.81100       -1.79130
C         -5.20200        1.74840       -1.85570
O         -5.37430        0.92460       -2.92140
O         -1.26690        1.05060        3.36210
O         -1.08330       -0.94680        2.36410
C         -6.24850        1.16890       -3.95950
H         -7.29280        1.17820       -3.57770
H         -6.01820        2.15140       -4.42630
C         -6.09840        0.07930       -5.00990
H         -6.32180       -0.91410       -4.56640
H         -5.05870        0.07600       -5.40240
H         -6.79880        0.26780       -5.85020
C         -8.13690        4.71110        6.62270
C         -6.49830        1.28510        6.65330
H         -6.76640        0.27320        6.92990
C         -7.44960        2.30010        6.79940
H         -8.42850        2.04520        7.18630
C         -7.13690        3.62740        6.45580
C         -5.85740        3.91660        5.95550
H         -5.58590        4.92800        5.68140
C         -4.90850        2.90200        5.80580
H         -3.92970        3.16060        5.42030
C         -5.21610        1.57660        6.15720
O         -4.44030       -0.63650        6.35320
C         -4.19290        0.51220        6.01100
O         -2.98330        0.82590        5.48500
O         -7.81650        5.98550        6.30910
O         -9.25390        4.46040        7.05360
C         -1.91370       -0.03890        5.37610
H         -1.55590       -0.32760        6.38800
H         -2.21950       -0.95570        4.82680
C         -0.79840        0.66980        4.60640
H          0.09860        0.02040        4.50730
H         -0.50710        1.58130        5.17030
H         -8.45050        6.70870        6.42100

