%chk=PET_uff_160_gaussian.chk
%nproc=4
%mem=4000Mb
#p 6-31g* mp2

Conformer number 160. Energy MM = 176.935 kcal/mol

0 1
C         -1.84260       -0.06290        2.63480
C         -3.84520       -0.13630       -0.58930
H         -4.09950       -0.86280       -1.35100
C         -3.03340       -0.53640        0.47540
H         -2.68290       -1.56120        0.50500
C         -2.68440        0.37110        1.49030
C         -3.16100        1.69120        1.41210
H         -2.91130        2.41450        2.17830
C         -3.97730        2.09130        0.34810
H         -4.33520        3.11230        0.32090
C         -4.33140        1.18020       -0.66220
O         -5.50950        0.79690       -2.65770
C         -5.21470        1.59840       -1.78020
O         -5.71320        2.86240       -1.81550
O         -1.49960        0.83230        3.60000
O         -1.46900       -1.22560        2.70850
C         -6.58610        3.31530       -2.78450
H         -6.11100        3.23940       -3.78750
H         -7.51380        2.70230       -2.77140
C         -6.94800        4.76690       -2.51050
H         -6.03440        5.39780       -2.53140
H         -7.43130        4.85660       -1.51430
H         -7.65470        5.12890       -3.28680
C          5.55570       -1.68920       -0.55970
C          2.75530       -0.75470        1.82590
H          1.73330       -1.05980        2.01400
C          3.46930       -1.39060        0.80640
H          2.97960       -2.16880        0.23440
C          4.79730       -1.02300        0.52780
C          5.39700       -0.00980        1.29470
H          6.41830        0.29580        1.10510
C          4.68400        0.62410        2.31660
H          5.17350        1.40240        2.88870
C          3.35420        0.26040        2.59110
O          3.12100        1.79990        4.35160
C          2.58860        0.93540        3.66790
O          1.29230        0.59400        3.88320
O          6.82660       -1.31790       -0.82810
O          5.03470       -2.57370       -1.22410
C          0.49730        1.14410        4.86800
H          0.94360        0.93380        5.86490
H          0.41900        2.24480        4.72840
C         -0.89100        0.52050        4.80410
H         -1.51540        0.92590        5.62830
H         -0.80070       -0.57780        4.95720
H          7.33570       -1.73480       -1.53770

