%chk=PET_uff_112_gaussian.chk
%nproc=4
%mem=4000Mb
#p 6-31g* mp2

Conformer number 112. Energy MM = 206.101 kcal/mol

0 1
C         -1.26950       -0.05970        2.41430
C          0.66170        1.02980       -0.65820
H          1.25390        1.88300       -0.96610
C          0.06170        1.04690        0.60350
H          0.20730        1.91280        1.23780
C         -0.69840       -0.04830        1.04670
C         -0.85880       -1.15540        0.19620
H         -1.43280       -2.01760        0.51200
C         -0.24960       -1.17720       -1.06040
H         -0.37440       -2.05400       -1.68340
C          0.52430       -0.08920       -1.49800
O          1.85180        0.82210       -3.20860
C          1.20740       -0.14030       -2.81260
O          1.16600       -1.28470       -3.54310
O         -0.94950        0.94280        3.27480
O         -1.92430       -1.02050        2.79620
C          1.85160       -1.47280       -4.72500
H          1.49790       -0.74650       -5.48870
H          2.94090       -1.32620       -4.55450
C          1.62100       -2.89110       -5.22280
H          0.53880       -3.06060       -5.40520
H          1.98100       -3.62090       -4.46600
H          2.17850       -3.05190       -6.16950
C          2.63680       -1.73720       12.19130
C          3.33890        0.21360        9.01460
H          4.18680        0.70270        8.55060
C          3.51840       -0.40940       10.25200
H          4.49860       -0.38250       10.71170
C          2.44680       -1.06470       10.88300
C          1.19180       -1.07880       10.25120
H          0.34690       -1.57620       10.71100
C          1.01230       -0.45610        9.01230
H          0.03540       -0.49110        8.54710
C          2.08480        0.19440        8.38010
O          2.85270        1.36820        6.49930
C          1.90250        0.82750        7.05170
O          0.70040        0.74990        6.42250
O          1.60250       -2.37150       12.78540
O          3.73040       -1.72770       12.73810
C          0.53560        1.05750        5.08800
H          0.81210        2.11650        4.88820
H          1.20120        0.39170        4.49350
C         -0.90160        0.80420        4.65010
H         -1.59370        1.52400        5.13640
H         -1.18550       -0.22550        4.96270
H          1.70740       -2.82140       13.63570

