%chk=PET_uff_119_gaussian.chk
%nproc=4
%mem=4000Mb
#p 6-31g* mp2

Conformer number 119. Energy MM = 186.448 kcal/mol

0 1
C         -1.59110        0.05220        2.41990
C         -1.62440       -0.31100       -1.35750
H         -1.95490       -1.04170       -2.08470
C         -1.83020       -0.57340       -0.00010
H         -2.31160       -1.50070        0.28380
C         -1.40990        0.34480        0.97650
C         -0.78400        1.53490        0.56580
H         -0.44290        2.26080        1.29350
C         -0.57460        1.79580       -0.79240
H         -0.08120        2.71730       -1.07610
C         -0.98990        0.87420       -1.76900
O         -1.11640        0.33400       -4.05060
C         -0.74810        1.14310       -3.20770
O         -0.09620        2.27300       -3.58680
O         -1.18140        0.96040        3.34350
O         -2.06480       -1.01960        2.77270
C          0.22230        2.57300       -4.89590
H          0.88300        1.78090       -5.31240
H         -0.70480        2.63540       -5.50690
C          0.94950        3.90690       -4.95270
H          1.88370        3.85720       -4.35380
H          0.30030        4.71360       -4.55200
H          1.21140        4.14450       -6.00570
C          5.51080       -1.66110       -0.56830
C          2.80400       -0.86560        1.96990
H          1.79210       -1.18800        2.18340
C          3.48300       -1.45250        0.89870
H          2.97820       -2.21220        0.31480
C          4.79350       -1.05540        0.58070
C          5.41340       -0.06750        1.36430
H          6.42090        0.26170        1.14330
C          4.73730        0.51360        2.44120
H          5.23880        1.27820        3.02140
C          3.42330        0.12460        2.75210
O          3.23780        1.59140        4.58140
C          2.68630        0.76180        3.87030
O          1.37190        0.47640        4.04270
O          6.75790       -1.24890       -0.88410
O          4.97500       -2.52810       -1.24380
C          0.53940        1.11300        4.94060
H          0.83530        0.87570        5.98570
H          0.60230        2.21290        4.78380
C         -0.89560        0.68040        4.66850
H         -1.58770        1.24500        5.32850
H         -0.99750       -0.40470        4.89220
H          7.23760       -1.62100       -1.63780

