%chk=PET_uff_059_gaussian.chk
%nproc=4
%mem=4000Mb
#p 6-31g* mp2

Conformer number 059. Energy MM = 186.926 kcal/mol

0 1
C         -1.61840        0.04800        2.37410
C         -2.63620        0.00420       -1.27920
H         -2.87340       -0.74100       -2.02830
C         -2.28940       -0.42240        0.00430
H         -2.27100       -1.48550        0.20990
C         -1.97800        0.50980        1.00970
C         -2.01910        1.87990        0.70090
H         -1.78420        2.62220        1.45340
C         -2.36010        2.30750       -0.58800
H         -2.38000        3.36970       -0.79740
C         -2.67330        1.37370       -1.59140
O         -3.32730        0.99870       -3.81550
C         -3.03540        1.82350       -2.95910
O         -3.03100        3.14800       -3.26150
O         -1.41660        0.95030        3.37420
O         -1.54780       -1.15210        2.60650
C         -3.34560        3.64920       -4.50910
H         -2.65240        3.22820       -5.27030
H         -4.39040        3.37430       -4.77360
C         -3.21140        5.16360       -4.50200
H         -2.16840        5.45070       -4.24980
H         -3.90310        5.60430       -3.75330
H         -3.46230        5.56570       -5.50630
C          5.64880        6.06910        4.73370
C          4.77340        2.37540        4.65220
H          5.30010        1.42980        4.68480
C          5.51470        3.56040        4.69760
H          6.59370        3.49860        4.76190
C          4.86820        4.80870        4.66920
C          3.46640        4.84570        4.58640
H          2.93880        5.79100        4.56350
C          2.72570        3.66120        4.53980
H          1.64600        3.72500        4.48470
C          3.36990        2.41310        4.57610
O          3.13630        0.07520        4.63690
C          2.57410        1.16060        4.56130
O          1.21810        1.22630        4.51670
O          5.01470        7.26210        4.72220
O          6.86880        6.03740        4.80740
C          0.38440        0.15550        4.77080
H          0.58930       -0.68100        4.06860
H          0.56980       -0.19790        5.80880
C         -1.07480        0.60470        4.67100
H         -1.21680        1.48560        5.33280
H         -1.75350       -0.19910        5.03240
H          5.50410        8.09550        4.77310

