%chk=PET_uff_139_gaussian.chk
%nproc=4
%mem=4000Mb
#p 6-31g* mp2

Conformer number 139. Energy MM = 187.890 kcal/mol

0 1
C         -1.68140        0.07520        2.34900
C         -4.20400        2.15010        0.41760
H         -4.76700        3.06320        0.56580
C         -3.32180        1.73200        1.41950
H         -3.22770        2.33170        2.31610
C         -2.58440        0.54530        1.26970
C         -2.73910       -0.20780        0.09300
H         -2.18670       -1.12780       -0.05200
C         -3.61800        0.21100       -0.90800
H         -3.71850       -0.39680       -1.79850
C         -4.36480        1.39050       -0.75500
O         -5.97820        2.83150       -1.67340
C         -5.31550        1.81180       -1.81310
O         -5.45840        1.04900       -2.92820
O         -1.53210        0.81430        3.48110
O         -1.09540       -0.99250        2.22820
C         -6.35610        1.31640       -3.94090
H         -7.39280        1.29850       -3.53860
H         -6.14840        2.31780       -4.37750
C         -6.22320        0.26010       -5.02710
H         -6.43160       -0.74700       -4.60690
H         -5.19430        0.27340       -5.44560
H         -6.94710        0.46700       -5.84310
C          2.90980       -1.71870       12.01760
C          3.39860        0.27210        8.81870
H          4.17470        0.87260        8.36080
C          3.64330       -0.31220       10.06650
H          4.60250       -0.14700       10.54110
C          2.65980       -1.09920       10.69330
C          1.42930       -1.29080       10.04480
H          0.65090       -1.89030       10.50000
C          1.18640       -0.71060        8.79790
H          0.22590       -0.87920        8.32690
C          2.16630        0.07810        8.17110
O          2.72160        1.40530        6.30690
C          1.88950        0.68920        6.84720
O          0.70610        0.42860        6.23760
O          1.95230       -2.46610       12.60920
O          3.98180       -1.55630       12.58340
C          0.29720        0.94620        5.02720
H          0.20150        2.05180        5.09950
H          1.03480        0.68810        4.23540
C         -1.04750        0.32100        4.67920
H         -1.78430        0.55100        5.47790
H         -0.92340       -0.78480        4.64750
H          2.09300       -2.87710       13.47420

