%chk=PET_uff_030_gaussian.chk
%nproc=4
%mem=4000Mb
#p 6-31g* mp2

Conformer number 030. Energy MM = 187.819 kcal/mol

0 1
C         -1.66730        0.18300        2.23430
C         -3.66430        0.05250       -0.99020
H         -3.85980       -0.66130       -1.78060
C         -2.80440       -0.31320        0.04980
H         -2.36030       -1.30080        0.03710
C         -2.53740        0.58020        1.10170
C         -3.13830        1.84970        1.08510
H         -2.95560        2.55950        1.88220
C         -3.99650        2.21550        0.04560
H         -4.45030        3.19840        0.06800
C         -4.27410        1.31940       -0.99990
O         -5.45930        0.91900       -2.98870
C         -5.20900        1.70570       -2.08480
O         -5.80090        2.92790       -2.05690
O         -1.48830        1.04230        3.27290
O         -1.16600       -0.93330        2.26240
C         -6.73020        3.35860       -2.98100
H         -6.28510        3.34730       -3.99990
H         -7.61840        2.68940       -2.96030
C         -7.16470        4.77550       -2.64010
H         -6.28850        5.45770       -2.66620
H         -7.61610        4.80180       -1.62540
H         -7.91650        5.12530       -3.37840
C         -1.21020       -1.92150       12.90910
C         -3.00600       -2.22890        9.58310
H         -3.88620       -2.72780        9.19670
C         -2.68270       -2.38980       10.93180
H         -3.32130       -3.00830       11.55000
C         -1.55190       -1.75640       11.47460
C         -0.74960       -0.96170       10.63740
H          0.12740       -0.46050       11.02620
C         -1.07320       -0.80170        9.28590
H         -0.43800       -0.18080        8.66620
C         -2.20530       -1.43270        8.74510
O         -3.56540       -1.79500        6.87110
C         -2.55990       -1.25600        7.31700
O         -1.78340       -0.48690        6.50710
O         -0.12560       -1.30390       13.42480
O         -1.90970       -2.61410       13.63480
C         -2.12790       -0.19980        5.20160
H         -2.24450       -1.14600        4.63030
H         -3.09670        0.34790        5.19480
C         -1.06440        0.67680        4.53750
H         -0.08540        0.15160        4.48830
H         -0.93840        1.60090        5.14080
H          0.11090       -1.39600       14.35870

