%chk=PET_uff_055_gaussian.chk
%nproc=4
%mem=4000Mb
#p 6-31g* mp2

Conformer number 055. Energy MM = 177.871 kcal/mol

0 1
C         -1.62200        0.12710        2.28010
C         -2.82450        0.02450       -1.31780
H         -3.16010       -0.72290       -2.02590
C         -2.45790       -0.38370       -0.03230
H         -2.51960       -1.43550        0.21810
C         -2.01510        0.55510        0.91560
C         -1.94850        1.91010        0.55060
H         -1.61190        2.65790        1.25790
C         -2.31630        2.31840       -0.73440
H         -2.25360        3.37020       -0.98390
C         -2.75780        1.38050       -1.68260
O         -3.52390        0.99730       -3.87010
C         -3.14460        1.81930       -3.04600
O         -3.07500        3.13550       -3.37470
O         -1.16790        1.05030        3.16960
O         -1.68430       -1.05470        2.59230
C         -3.40140        3.63830       -4.61750
H         -2.74430        3.18490       -5.39170
H         -4.46260        3.40390       -4.85320
C         -3.21090        5.14700       -4.62130
H         -2.15310        5.39760       -4.39310
H         -3.86880        5.61510       -3.85850
H         -3.47080        5.55500       -5.62080
C         -0.20050       -1.06840       12.89740
C         -2.72940       -0.60990       10.10200
H         -3.80550       -0.64160        9.98440
C         -2.18150       -0.84810       11.36640
H         -2.84880       -1.05800       12.19320
C         -0.78890       -0.81560       11.55930
C          0.04270       -0.53930       10.46170
H          1.11880       -0.50780       10.57640
C         -0.50470       -0.29950        9.19910
H          0.16480       -0.08990        8.37430
C         -1.89580       -0.33220        9.00470
O         -3.67390       -0.12790        7.48010
C         -2.46430       -0.07730        7.65870
O         -1.63020        0.21800        6.62900
O          1.13940       -1.03580       13.06710
O         -0.92240       -1.30780       13.85480
C         -2.03870        0.44020        5.33090
H         -2.53780       -0.47220        4.94070
H         -2.75660        1.28940        5.30150
C         -0.81620        0.78850        4.48070
H         -0.06400       -0.03010        4.51630
H         -0.35050        1.70370        4.90440
H          1.54440       -1.19800       13.93080

