%chk=PET_uff_184_gaussian.chk
%nproc=4
%mem=4000Mb
#p 6-31g* mp2

Conformer number 184. Energy MM = 200.586 kcal/mol

0 1
C         -1.48770        0.47130        2.25110
C         -4.33890        2.16720        0.42870
H         -5.02600        2.98390        0.61190
C         -3.37260        1.87270        1.39310
H         -3.34180        2.46720        2.29780
C         -2.47300        0.81130        1.20020
C         -2.55100        0.05740        0.01750
H         -1.87310       -0.76930       -0.15750
C         -3.51350        0.35520       -0.94950
H         -3.55220       -0.24850       -1.84770
C         -4.42190        1.40890       -0.75170
O         -6.26540        2.60290       -1.58430
C         -5.45670        1.70320       -1.77120
O         -5.50540        0.96290       -2.90800
O         -1.42650        1.22270        3.38130
O         -0.77370       -0.51530        2.12780
C         -6.44910        1.12890       -3.89930
H         -7.46490        0.93720       -3.48820
H         -6.40280        2.16660       -4.29600
C         -6.17030        0.15060       -5.02910
H         -6.21700       -0.89260       -4.65020
H         -5.16020        0.33910       -5.45140
H         -6.92660        0.27840       -5.83170
C          0.24560       -3.22490       12.13420
C          0.55420       -2.93760        8.36220
H          1.15880       -3.36930        7.57430
C          0.77860       -3.33940        9.68190
H          1.55220       -4.07100        9.87950
C          0.01220       -2.80330       10.73200
C         -0.98310       -1.85830       10.43370
H         -1.59050       -1.42650       11.21920
C         -1.20810       -1.45820        9.11500
H         -1.98490       -0.72850        8.91850
C         -0.44240       -1.99280        8.06540
O         -0.02190       -2.02750        5.75520
C         -0.69270       -1.56520        6.66920
O         -1.69820       -0.68960        6.41270
O         -0.49660       -2.70060       13.13360
O          1.11040       -4.04890       12.39580
C         -2.04300       -0.22000        5.16130
H         -2.21560       -1.07750        4.47410
H         -2.99890        0.33870        5.25550
C         -0.98990        0.74440        4.60030
H          0.00680        0.26390        4.49470
H         -0.88940        1.59950        5.30160
H         -0.36040       -2.96120       14.05520

