%chk=PET_uff_013_gaussian.chk
%nproc=4
%mem=4000Mb
#p 6-31g* mp2

Conformer number 013. Energy MM = 200.461 kcal/mol

0 1
C         -1.54000        0.18750        2.43350
C         -0.64150       -0.85280       -1.10170
H         -0.96180       -1.59330       -1.82380
C         -1.29960       -0.78340        0.12980
H         -2.10880       -1.47490        0.32970
C         -0.90070        0.15340        1.09830
C          0.15780        1.02750        0.80510
H          0.49350        1.75570        1.53300
C          0.81850        0.95460       -0.42160
H          1.64210        1.63240       -0.60800
C          0.43210        0.00960       -1.38510
O          0.81180       -0.88390       -3.52440
C          1.16320       -0.08010       -2.67080
O          2.24480        0.71410       -2.87990
O         -1.08240        1.05830        3.36950
O         -2.40020       -0.63260        2.72520
C          2.99980        0.70820       -4.03310
H          3.41290       -0.30910       -4.21150
H          2.36690        1.00580       -4.89750
C          4.15060        1.69160       -3.88680
H          4.79660        1.39440       -3.03340
H          3.75710        2.71400       -3.70420
H          4.75970        1.69770       -4.81460
C          4.88230       -1.91550       -0.90430
C          2.60110       -2.39330        2.09500
H          2.09420       -3.21270        2.59030
C          3.38430       -2.66740        0.96890
H          3.46510       -3.69140        0.62610
C          4.05210       -1.63080        0.29270
C          3.92120       -0.31640        0.76750
H          4.42150        0.50470        0.26890
C          3.13740       -0.04240        1.89230
H          3.05430        0.98290        2.22810
C          2.46690       -1.07730        2.56850
O          1.05240       -1.67180        4.35360
C          1.61920       -0.77130        3.74980
O          1.44540        0.52390        4.12180
O          5.52230       -0.91090       -1.54160
O          4.99330       -3.05940       -1.32140
C          0.56270        1.00750        5.07390
H          0.79580        0.60040        6.08120
H          0.69440        2.10990        5.10600
C         -0.89370        0.71360        4.69440
H         -1.57730        1.29390        5.34940
H         -1.10050       -0.36760        4.85570
H          6.06970       -1.07470       -2.32300

