%chk=PET_uff_085_gaussian.chk
%nproc=4
%mem=4000Mb
#p 6-31g* mp2

Conformer number 085. Energy MM = 182.773 kcal/mol

0 1
C         -1.51650        0.14270        2.38220
C         -2.82920        2.39020       -0.39420
H         -3.18170        3.40830       -0.50780
C         -2.41320        1.95040        0.87230
H         -2.45570        2.64090        1.70670
C         -1.95790        0.63380        1.05330
C         -1.92230       -0.23130       -0.05240
H         -1.57460       -1.25070        0.05030
C         -2.32560        0.20790       -1.31140
H         -2.27640       -0.48770       -2.14010
C         -2.78490        1.52020       -1.49930
O         -3.64690        3.08380       -3.03480
C         -3.21080        1.95450       -2.85180
O         -3.10150        1.08040       -3.88550
O         -1.41380        0.99940        3.43540
O         -1.24030       -1.04050        2.52340
C         -3.49450        1.33130       -5.18300
H         -4.58980        1.51970       -5.21400
H         -2.95440        2.21850       -5.57990
C         -3.16380        0.11900       -6.04090
H         -3.69000       -0.77870       -5.65070
H         -2.06860       -0.07010       -6.02220
H         -3.48090        0.29730       -7.08890
C          5.78190        5.59870        2.39460
C          4.84600        2.08510        3.48640
H          5.34970        1.14310        3.66370
C          5.60260        3.18560        3.07310
H          6.67050        3.06530        2.94110
C          4.98530        4.42640        2.83300
C          3.59740        4.54170        3.01470
H          3.09230        5.48310        2.83970
C          2.84120        3.44110        3.42680
H          1.77320        3.56340        3.55860
C          3.45640        2.20160        3.66750
O          3.18830       -0.03050        4.34380
C          2.64610        1.04110        4.10910
O          1.30020        1.17380        4.24890
O          5.17560        6.78410        2.16560
O          6.99040        5.50060        2.23640
C          0.47430        0.17120        4.71400
H          0.59520       -0.73530        4.08510
H          0.76250       -0.09390        5.75440
C         -0.98530        0.64400        4.70480
H         -1.07300        1.53160        5.36760
H         -1.64290       -0.15520        5.11130
H          5.67560        7.56070        1.87730

