%chk=PET_uff_172_gaussian.chk
%nproc=4
%mem=4000Mb
#p 6-31g* mp2

Conformer number 172. Energy MM = 188.239 kcal/mol

0 1
C         -1.90910        0.04450        2.22500
C         -4.08740       -0.05470       -0.88030
H         -4.37720       -0.78110       -1.62940
C         -3.20980       -0.44800        0.13420
H         -2.84510       -1.46760        0.14220
C         -2.81630        0.46290        1.12970
C         -3.31240        1.77620        1.08480
H         -3.02970        2.50090        1.83810
C         -4.19320        2.16810        0.07320
H         -4.56450        3.18520        0.07260
C         -4.59320        1.25640       -0.91780
O         -5.88510        0.87900       -2.84350
C         -5.54520        1.67320       -1.97620
O         -6.05730        2.93130       -1.96130
O         -1.52710        0.94950        3.16550
O         -1.52000       -1.11420        2.29000
C         -6.99080        3.39600       -2.86460
H         -6.57790        3.34630       -3.89590
H         -7.91130        2.77420       -2.80690
C         -7.34450        4.83710       -2.53250
H         -6.43740        5.47530       -2.59380
H         -7.76410        4.89840       -1.50580
H         -8.10060        5.21340       -3.25360
C          2.01150       -1.69190       12.02700
C          1.24470       -2.35340        8.36880
H          1.57190       -3.03720        7.59540
C          1.80880       -2.45810        9.64340
H          2.55740       -3.22030        9.82100
C          1.41160       -1.58810       10.67400
C          0.43670       -0.61390       10.40290
H          0.10980        0.07130       11.17490
C         -0.12930       -0.51080        9.12920
H         -0.87750        0.25170        8.95290
C          0.26950       -1.37800        8.09820
O          0.03580       -2.00130        5.84560
C         -0.33110       -1.25920        6.74750
O         -1.30560       -0.33770        6.52520
O          1.62720       -0.84470       13.00700
O          2.85820       -2.54100       12.26420
C         -1.88650       -0.07630        5.29930
H         -2.27270       -1.01930        4.85520
H         -2.75010        0.60280        5.46370
C         -0.90280        0.63100        4.35640
H          0.00080        0.01420        4.16130
H         -0.57670        1.57470        4.84300
H          2.00880       -0.89320       13.89540

