%chk=PET_uff_192_gaussian.chk
%nproc=4
%mem=4000Mb
#p 6-31g* mp2

Conformer number 192. Energy MM = 214.778 kcal/mol

0 1
C         -1.64550        0.28750        2.42520
C         -0.61910       -0.88890       -1.02850
H         -0.93800       -1.63590       -1.74430
C         -1.33420       -0.75180        0.16420
H         -2.18370       -1.39970        0.34090
C         -0.93980        0.19240        1.12650
C          0.17340        1.00830        0.86510
H          0.50620        1.74170        1.58920
C          0.88890        0.87120       -0.32630
H          1.75170        1.50520       -0.49040
C          0.50540       -0.08450       -1.28230
O          0.96600       -1.09630       -3.35180
C          1.29260       -0.25210       -2.52790
O          2.39130        0.51780       -2.73440
O         -1.18960        1.14730        3.37120
O         -2.55380       -0.48730        2.69290
C          3.22860        0.39460       -3.82340
H          3.67530       -0.62400       -3.84150
H          2.65640        0.56150       -4.76200
C          4.34130        1.42640       -3.72470
H          4.92610        1.26790       -2.79360
H          3.90880        2.44930       -3.71290
H          5.02010        1.33120       -4.59830
C          6.53640        3.19350        1.22410
C          4.77080        0.17870        2.71590
H          4.96180       -0.88070        2.83660
C          5.73410        0.97080        2.08320
H          6.64640        0.50300        1.73250
C          5.52060        2.34900        1.90100
C          4.32440        2.91710        2.36820
H          4.13060        3.97560        2.24660
C          3.35900        2.12440        2.99510
H          2.44660        2.59510        3.33950
C          3.56980        0.74670        3.17470
O          2.72840       -1.27600        4.04050
C          2.52870       -0.08550        3.82850
O          1.33120        0.47580        4.13310
O          6.31500        4.51520        1.05160
O          7.57470        2.69870        0.81030
C          0.25910       -0.18050        4.70330
H          0.01790       -1.09110        4.11140
H          0.50180       -0.48260        5.74430
C         -0.94880        0.76260        4.67750
H         -0.70500        1.66580        5.27650
H         -1.84540        0.27790        5.12030
H          6.96040        5.08240        0.60670

