%chk=PET_uff_028_gaussian.chk
%nproc=4
%mem=4000Mb
#p 6-31g* mp2

Conformer number 028. Energy MM = 202.528 kcal/mol

0 1
C         -1.43400        0.04530        2.47590
C          0.66480        1.07810       -0.50360
H          1.27080        1.92630       -0.79680
C         -0.01090        1.12330        0.71880
H          0.09310        2.00430        1.34000
C         -0.78940        0.03360        1.14300
C         -0.89210       -1.09530        0.31390
H         -1.47700       -1.95450        0.61750
C         -0.20750       -1.14530       -0.90100
H         -0.28880       -2.03960       -1.50600
C          0.58530       -0.06390       -1.31900
O          2.01070        0.80520       -2.97160
C          1.34530       -0.14740       -2.58780
O          1.34180       -1.30980       -3.28960
O         -1.13120        1.04090        3.34950
O         -2.10620       -0.91100        2.83920
C          2.06790       -1.52310       -4.44180
H          1.73010       -0.82360       -5.23700
H          3.14980       -1.35900       -4.24110
C          1.86640       -2.95760       -4.90400
H          0.79140       -3.14470       -5.11090
H          2.21210       -3.66040       -4.11530
H          2.45130       -3.14040       -5.82970
C          4.67850       -1.90110       -0.93360
C          2.57410       -2.29140        2.20590
H          2.12290       -3.09750        2.76960
C          3.30630       -2.60000        1.05400
H          3.40540       -3.63800        0.76100
C          3.90130       -1.58110        0.28940
C          3.74810       -0.24720        0.70130
H          4.19210        0.56130        0.13390
C          3.01380        0.06190        1.84960
H          2.91060        1.10100        2.13410
C          2.41790       -0.95530        2.61540
O          1.11920       -1.49360        4.50330
C          1.62100       -0.61080        3.82180
O          1.40650        0.69820        4.11980
O          5.25240       -0.91200       -1.65280
O          4.80680       -3.06180       -1.29750
C          0.51180        1.20720        5.04820
H          0.76930        0.87970        6.07850
H          0.59380        2.31410        5.00370
C         -0.93040        0.81790        4.70030
H         -1.65010        1.40520        5.30840
H         -1.07260       -0.25570        4.95350
H          5.76790       -1.10020       -2.45010

