%chk=PET_uff_023_gaussian.chk
%nproc=4
%mem=4000Mb
#p 6-31g* mp2

Conformer number 023. Energy MM = 217.919 kcal/mol

0 1
C         -1.71990        0.03780        2.50250
C         -4.57680       -0.51010        0.06730
H         -4.83600       -1.21340       -0.71410
C         -3.34630       -0.64830        0.71620
H         -2.68910       -1.45720        0.42180
C         -2.98440        0.22930        1.75290
C         -3.86860        1.26050        2.11140
H         -3.62090        1.95060        2.90820
C         -5.09750        1.39910        1.46250
H         -5.76280        2.19460        1.77420
C         -5.47000        0.50910        0.44150
O         -7.12640       -0.15090       -1.08860
C         -6.79770        0.63330       -0.20780
O         -7.66050        1.59570        0.20950
O         -1.45420        0.83040        3.57300
O         -0.97550       -0.89270        2.22340
C         -8.95200        1.73130       -0.25560
H         -8.94480        1.89970       -1.35440
H         -9.53070        0.80850       -0.02890
C         -9.61570        2.91520        0.43030
H         -9.05410        3.84690        0.20610
H         -9.63400        2.75720        1.52980
H        -10.65820        3.02480        0.06470
C          2.16470       -2.48190       11.77620
C          0.41590        0.21930        9.76620
H         -0.33860        0.97670        9.93830
C          0.79760       -0.60070       10.83130
H          0.32990       -0.45200       11.79690
C          1.76530       -1.60360       10.64890
C          2.34490       -1.76560        9.37880
H          3.09200       -2.53030        9.20640
C          1.96280       -0.94500        8.31270
H          2.42070       -1.09970        7.34450
C          0.99260        0.05500        8.49460
O         -0.30310        1.75230        7.52850
C          0.56220        0.90460        7.35730
O          1.09000        0.70680        6.11790
O          3.09020       -3.44810       11.59030
O          1.65560       -2.34150       12.87900
C          0.50510        1.15830        4.94630
H          0.32600        2.25500        5.00160
H          1.19410        0.95670        4.09900
C         -0.79840        0.39680        4.70840
H         -1.48730        0.55370        5.56490
H         -0.57440       -0.69370        4.66230
H          3.36040       -4.03370       12.31190

