%chk=PET_uff_014_gaussian.chk
%nproc=4
%mem=4000Mb
#p 6-31g* mp2

Conformer number 014. Energy MM = 216.282 kcal/mol

0 1
C         -1.79650        0.17800        2.41750
C         -4.65630       -0.44260        0.00490
H         -4.93110       -1.18460       -0.73420
C         -3.43620       -0.57760        0.67320
H         -2.80110       -1.42170        0.43470
C         -3.05290        0.35490        1.65260
C         -3.90720        1.43160        1.93970
H         -3.64350        2.16220        2.69440
C         -5.12970        1.56260        1.27690
H         -5.77350        2.39430        1.53450
C         -5.52090        0.62350        0.30880
O         -7.17310       -0.06430       -1.21410
C         -6.83940        0.74620       -0.35920
O         -7.69180        1.73420        0.01760
O         -1.46250        1.07660        3.38050
O         -1.11480       -0.82500        2.25380
C         -8.97180        1.88080       -0.47510
H         -8.93860        2.04590       -1.57370
H         -9.56450        0.96460       -0.25830
C         -9.63950        3.07040        0.19680
H         -9.06540        3.99760       -0.01290
H         -9.68350        2.91040        1.29550
H        -10.67310        3.18870       -0.19080
C         -0.31850       -3.25600       12.42990
C         -2.76200       -2.02220        9.80690
H         -3.83540       -2.00860        9.66220
C         -2.25060       -2.59430       10.97290
H         -2.94230       -3.00650       11.69700
C         -0.86410       -2.63780       11.19730
C         -0.00150       -2.09150       10.23080
H          1.07140       -2.11090       10.37430
C         -0.51410       -1.51590        9.06370
H          0.17510       -1.10720        8.33520
C         -1.89950       -1.47820        8.83880
O         -3.65700       -0.90590        7.40030
C         -2.44770       -0.88890        7.59500
O         -1.61580       -0.34610        6.66490
O          1.01620       -3.30710       12.63100
O         -1.07150       -3.72910       13.26910
C         -2.06530        0.05810        5.42500
H         -2.46100       -0.82750        4.88070
H         -2.88500        0.80210        5.54510
C         -0.94710        0.70780        4.60850
H         -0.08030        0.02200        4.48300
H         -0.60150        1.61800        5.14310
H          1.39110       -3.71340       13.42500

