%chk=PET_uff_179_gaussian.chk
%nproc=4
%mem=4000Mb
#p 6-31g* mp2

Conformer number 179. Energy MM = 180.562 kcal/mol

0 1
C         -1.99500       -0.05700        2.63170
C         -4.76280       -0.43430        0.06190
H         -4.96320       -1.04120       -0.81240
C         -3.55900       -0.61870        0.74780
H         -2.86120       -1.36320        0.38460
C         -3.26370        0.14540        1.89070
C         -4.19540        1.10080        2.32900
H         -3.99810        1.70490        3.20580
C         -5.39950        1.28420        1.64390
H         -6.09850        2.02540        2.01060
C         -5.69790        0.51720        0.50510
O         -7.24320        0.03560       -1.19810
C         -6.98490        0.70690       -0.20760
O         -7.88060        1.61690        0.25560
O         -1.73130        0.69850        3.73200
O         -1.19740       -0.90500        2.25400
C         -9.12450        1.83020       -0.30150
H         -9.01640        2.14760       -1.36170
H         -9.72130        0.89270       -0.25760
C         -9.84750        2.91830        0.47680
H         -9.26830        3.86510        0.43320
H         -9.96510        2.61220        1.53820
H        -10.85270        3.08930        0.03740
C         -5.39340        6.36350        8.84390
C         -4.98610        2.69320        7.95760
H         -5.57010        1.78440        8.03290
C         -5.53980        3.89000        8.42380
H         -6.53720        3.87420        8.84560
C         -4.81270        5.09110        8.34770
C         -3.52180        5.06930        7.79490
H         -2.93630        5.97720        7.72130
C         -2.96700        3.87310        7.33180
H         -1.96870        3.89110        6.91330
C         -3.69190        2.67140        7.40820
O         -3.73250        0.36350        6.96880
C         -3.09060        1.40410        6.92210
O         -1.81490        1.40960        6.44900
O         -4.68380        7.51060        8.76460
O         -6.51530        6.38290        9.32990
C         -1.10860        0.30880        5.99580
H         -0.21890        0.17310        6.64640
H         -1.71070       -0.62520        6.03510
C         -0.63730        0.55010        4.56610
H          0.00850       -0.30030        4.25590
H         -0.02610        1.47690        4.53230
H         -5.04280        8.35070        9.08400

