%chk=PET_uff_050_gaussian.chk
%nproc=4
%mem=4000Mb
#p 6-31g* mp2

Conformer number 050. Energy MM = 194.211 kcal/mol

0 1
C         -1.75210        0.03240        2.41250
C         -3.89250       -0.10050       -0.71730
H         -4.19870       -0.84490       -1.44140
C         -3.03620       -0.48350        0.31830
H         -2.70540       -1.51350        0.36630
C         -2.62300        0.44870        1.28560
C         -3.07790        1.77500        1.18900
H         -2.78180        2.51580        1.92110
C         -3.93980        2.15680        0.15570
H         -4.28320        3.18320        0.11620
C         -4.36040        1.22220       -0.80540
O         -5.64800        0.80280       -2.72440
C         -5.29660        1.62220       -1.88530
O         -5.78470        2.88950       -1.92180
O         -1.34790        0.95060        3.32920
O         -1.43170       -1.14260        2.53470
C         -6.70080        3.33310       -2.85420
H         -6.27630        3.23620       -3.87740
H         -7.63160        2.72790       -2.78460
C         -7.03810        4.79140       -2.58590
H         -6.12130        5.41380       -2.65910
H         -7.47310        4.90030       -1.56960
H         -7.77760        5.14810       -3.33360
C          2.37110        0.52330       12.51730
C          3.38650        0.76940        8.86370
H          4.30110        0.86010        8.29110
C          3.46520        0.69770       10.25900
H          4.44000        0.73580       10.72950
C          2.29820        0.58570       11.03650
C          1.05370        0.53860       10.38990
H          0.13590        0.45230       10.95880
C          0.97480        0.60490        8.99740
H         -0.00260        0.56990        8.53270
C          2.13850        0.72530        8.21860
O          3.02970        0.97790        6.05280
C          2.03120        0.81650        6.74110
O          0.80620        0.72570        6.16710
O          1.23960        0.43550       13.24950
O          3.45360        0.55950       13.08410
C          0.52100        0.94840        4.83690
H          0.74070        2.00850        4.58270
H          1.12970        0.27760        4.19130
C         -0.95730        0.65240        4.62180
H         -1.56390        1.27450        5.31410
H         -1.14800       -0.41470        4.87470
H          1.26220        0.40480       14.21630

