%chk=PET_uff_067_gaussian.chk
%nproc=4
%mem=4000Mb
#p 6-31g* mp2

Conformer number 067. Energy MM = 193.905 kcal/mol

0 1
C         -1.71840        0.22780        2.40240
C         -4.53320       -0.38130       -0.06660
H         -4.74760       -1.05150       -0.88960
C         -3.29360       -0.47350        0.57390
H         -2.58250       -1.21680        0.23540
C         -2.99170        0.36470        1.66090
C         -3.94470        1.30530        2.08250
H         -3.74490        1.96190        2.92020
C         -5.17650        1.40310        1.43900
H         -5.89010        2.13480        1.79640
C         -5.48900        0.55560        0.36420
O         -7.11240       -0.10420       -1.20170
C         -6.81750        0.64980       -0.28420
O         -7.70950        1.57120        0.16280
O         -1.57810        0.90410        3.57260
O         -0.88050       -0.59020        2.04690
C         -8.99570        1.70690       -0.31170
H         -8.97820        1.92000       -1.40210
H         -9.56510        0.76990       -0.12640
C         -9.67610        2.85920        0.41260
H         -9.11980        3.80330        0.22830
H         -9.70070        2.66120        1.50570
H        -10.71600        2.97490        0.04260
C         -6.75530       -4.25140        1.36850
C         -6.06680       -1.73700        4.12990
H         -6.64260       -1.09290        4.78290
C         -6.74650       -2.54790        3.21560
H         -7.82850       -2.51090        3.18900
C         -6.03700       -3.39290        2.34380
C         -4.63380       -3.41120        2.41020
H         -4.05840       -4.04800        1.75000
C         -3.95470       -2.60430        3.32740
H         -2.87270       -2.63720        3.34770
C         -4.66230       -1.75680        4.19780
O         -4.55060       -0.08160        5.84210
C         -3.93300       -0.88100        5.15140
O         -2.57520       -0.94390        5.21930
O         -6.06300       -5.05480        0.53120
O         -7.97620       -4.23730        1.31530
C         -1.74680        0.03720        5.74240
H         -2.32930        0.91720        6.09650
H         -1.16890       -0.37180        6.59690
C         -0.79870        0.48760        4.63410
H         -0.15630       -0.37790        4.35770
H         -0.14280        1.31560        4.97640
H         -6.51210       -5.62140       -0.11210

