%chk=PET_uff_148_gaussian.chk
%nproc=4
%mem=4000Mb
#p 6-31g* mp2

Conformer number 148. Energy MM = 185.992 kcal/mol

0 1
C         -1.72870        0.26370        2.40710
C         -2.84710        0.08990       -1.21090
H         -3.16230       -0.67400       -1.91080
C         -2.51160       -0.28870        0.09040
H         -2.57560       -1.33610        0.35970
C         -2.09280        0.67060        1.02920
C         -2.01940        2.01740        0.63890
H         -1.70070        2.77930        1.33930
C         -2.35930        2.39720       -0.66310
H         -2.29360        3.44360       -0.93380
C         -2.77550        1.43770       -1.60190
O         -3.48240        1.00150       -3.79940
C         -3.13060        1.84350       -2.98300
O         -3.06480        3.15350       -3.33710
O         -1.27350        1.18960        3.29720
O         -1.84030       -0.90930        2.73950
C         -3.36590        3.62640       -4.59660
H         -2.68490        3.16680       -5.34590
H         -4.41840        3.37410       -4.85420
C         -3.19540        5.13720       -4.62530
H         -2.14680        5.40590       -4.37620
H         -3.87790        5.61000       -3.88760
H         -3.43620        5.52280       -5.63850
C          2.74590       -3.27900       11.29170
C          1.39720       -1.18510        8.42770
H          0.62860       -0.43700        8.27830
C          1.58300       -1.71350        9.70840
H          0.95320       -1.35910       10.51480
C          2.56190       -2.69610        9.94020
C          3.35920       -3.12780        8.86760
H          4.12000       -3.88440        9.01270
C          3.17920       -2.59350        7.58930
H          3.80330       -2.95440        6.78100
C          2.19140       -1.62170        7.35440
O          2.69420       -1.44010        5.06900
C          1.96880       -1.08680        5.99010
O          0.90710       -0.27340        5.75150
O          3.66460       -4.24890       11.49310
O          2.05820       -2.89830       12.22790
C          0.51110        0.10260        4.48490
H          1.29850        0.71990        3.99900
H          0.35530       -0.81620        3.88160
C         -0.80060        0.88860        4.56320
H         -0.61800        1.83370        5.11730
H         -1.56990        0.30550        5.11640
H          3.78880       -4.65500       12.36270

