%chk=PET_uff_153_gaussian.chk
%nproc=4
%mem=4000Mb
#p 6-31g* mp2

Conformer number 153. Energy MM = 219.726 kcal/mol

0 1
C         -1.69010        0.12820        2.32610
C         -1.62210       -0.27500       -1.44130
H         -1.89830       -1.03240       -2.16430
C         -1.85130       -0.52590       -0.08730
H         -2.29650       -1.47100        0.19790
C         -1.49630        0.42390        0.88620
C         -0.91640        1.63530        0.47490
H         -0.62660        2.38390        1.20210
C         -0.68100        1.88430       -0.88150
H         -0.21880        2.82090       -1.16730
C         -1.02610        0.92880       -1.85330
O         -1.06280        0.34250       -4.12700
C         -0.74740        1.17780       -3.28920
O         -0.10980        2.31610       -3.66640
O         -1.35380        1.05060        3.26790
O         -2.09850       -0.97400        2.66850
C          0.25220        2.59660       -4.96850
H          0.94090        1.80820       -5.34500
H         -0.65240        2.63160       -5.61400
C          0.96200        3.93990       -5.02280
H          1.87340        3.91380       -4.38820
H          0.28620        4.74210       -4.65830
H          1.25840        4.16430       -6.06920
C          4.22830       -2.21320       11.03000
C          1.96200        0.25610        9.24150
H          1.45920        1.18860        9.46520
C          2.72500       -0.35870       10.24090
H          2.79240        0.11590       11.21180
C          3.40020       -1.56600        9.98380
C          3.28660       -2.15050        8.71340
H          3.79500       -3.07790        8.48210
C          2.51820       -1.54180        7.71870
H          2.45910       -2.01730        6.74740
C          1.85200       -0.32980        7.96890
O          0.59130        1.43160        7.05400
C          1.06920        0.31850        6.88780
O          0.92160       -0.33540        5.70650
O          4.89350       -3.35760       10.75830
O          4.32440       -1.71050       12.14160
C          0.47250        0.17650        4.50450
H          1.15950        0.97700        4.15390
H          0.51660       -0.65450        3.76930
C         -0.96540        0.71440        4.55290
H         -1.00060        1.62540        5.18280
H         -1.66520       -0.03360        4.98660
H          5.45130       -3.78920       11.42120

