%chk=PET_uff_072_gaussian.chk
%nproc=4
%mem=4000Mb
#p 6-31g* mp2

Conformer number 072. Energy MM = 188.293 kcal/mol

0 1
C         -1.65760        0.14750        2.41170
C         -1.73800       -0.22300       -1.36520
H         -2.08360       -0.95030       -2.08900
C         -1.92750       -0.48540       -0.00510
H         -2.41150       -1.40900        0.28630
C         -1.49060        0.43200        0.96540
C         -0.86130        1.61670        0.54620
H         -0.50900        2.34210        1.26880
C         -0.66610        1.87630       -0.81270
H         -0.17220        2.79590       -1.10140
C         -1.10200        0.95950       -1.78360
O         -1.30650        0.45220       -4.06770
C         -0.89430        1.23960       -3.22580
O         -0.24350        2.36970       -3.60730
O         -1.21380        1.05260        3.32160
O         -2.14020       -0.91430        2.78110
C         -0.08170        2.75810       -4.92170
H          0.44530        1.96300       -5.49350
H         -1.07790        2.94100       -5.38070
C          0.74070        4.03600       -4.97920
H          1.74770        3.85830       -4.54490
H          0.23450        4.84280       -4.40800
H          0.85660        4.35930       -6.03520
C          5.57810        1.99620       -0.83500
C          4.58250       -0.13850        2.14600
H          4.99220       -0.96710        2.70980
C          5.31660        0.38040        1.07400
H          6.27680       -0.06080        0.83730
C          4.81140        1.44950        0.31160
C          3.56210        1.99320        0.64860
H          3.14370        2.81560        0.08200
C          2.83060        1.47700        1.72060
H          1.86900        1.91690        1.94880
C          3.33030        0.40450        2.47960
O          2.92050       -1.11570        4.23150
C          2.52440       -0.14870        3.59500
O          1.31620        0.40290        3.86220
O          5.07150        3.01270       -1.56700
O          6.66740        1.52680       -1.13010
C          0.34350       -0.14630        4.67130
H          0.06750       -1.14660        4.27330
H          0.70980       -0.26290        5.71470
C         -0.88160        0.76950        4.63400
H         -0.61570        1.72710        5.12980
H         -1.73840        0.31770        5.17930
H          5.55040        3.37890       -2.32400

