%chk=PET_uff_174_gaussian.chk
%nproc=4
%mem=4000Mb
#p 6-31g* mp2

Conformer number 174. Energy MM = 190.158 kcal/mol

0 1
C         -1.47660        0.06080        2.37090
C         -1.21090       -0.35810       -1.38570
H         -1.37580       -1.14480       -2.11150
C         -1.46660       -0.62510       -0.03950
H         -1.81820       -1.61130        0.23740
C         -1.25310        0.36220        0.93750
C         -0.79010        1.62700        0.53730
H         -0.61140        2.40660        1.26710
C         -0.53980        1.89610       -0.81160
H         -0.17580        2.87760       -1.08920
C         -0.74090        0.90310       -1.78670
O         -0.06060        2.27380       -3.57010
C         -0.44900        1.16790       -3.21670
O         -0.58400        0.16600       -4.12310
O         -1.17530        0.99640        3.31180
O         -1.86030       -1.05280        2.70460
C         -0.29590        0.29170       -5.46660
H         -0.95190        1.06420       -5.92330
H          0.76820        0.58830       -5.59700
C         -0.52500       -1.04270       -6.15910
H         -1.58460       -1.35510       -6.04390
H          0.13330       -1.81890       -5.71350
H         -0.29030       -0.94980       -7.24030
C          4.84010       -1.96620       -0.84720
C          2.74090       -2.33320        2.29650
H          2.34870       -3.13810        2.90540
C          3.50420       -2.65120        1.16840
H          3.68350       -3.69370        0.93660
C          4.02810       -1.63480        0.34980
C          3.77030       -0.29490        0.68240
H          4.15840        0.51110        0.07220
C          3.00570        0.02280        1.80800
H          2.82370        1.06610        2.03370
C          2.48390       -0.99190        2.62900
O          1.21260       -1.52270        4.53520
C          1.66450       -0.64210        3.81610
O          1.39350        0.66470        4.07210
O          5.34260       -0.97960       -1.62180
O          5.06190       -3.13230       -1.14010
C          0.48510        1.15180        4.99640
H          0.75320        0.83260        6.02670
H          0.53080        2.26050        4.95180
C         -0.94060        0.71500        4.64660
H         -1.67100        1.25280        5.28710
H         -1.04470       -0.37070        4.85800
H          5.87700       -1.17370       -2.40500

