%chk=PET_uff_094_gaussian.chk
%nproc=4
%mem=4000Mb
#p 6-31g* mp2

Conformer number 094. Energy MM = 182.566 kcal/mol

0 1
C         -1.64620        0.07410        2.27360
C         -1.68970       -0.27380       -1.50290
H         -2.02820       -0.99730       -2.23450
C         -1.89820       -0.54110       -0.14710
H         -2.39070       -1.46360        0.13400
C         -1.46570        0.36840        0.83290
C         -0.82830        1.55330        0.42880
H         -0.47920        2.27210        1.15970
C         -0.61630        1.81860       -0.92650
H         -0.11220        2.73530       -1.20430
C         -1.04070        0.90610       -1.90690
O         -1.16480        0.38610       -4.19390
C         -0.78990        1.18120       -3.34140
O         -0.11700        2.30420       -3.70360
O         -1.23230        0.97920        3.19810
O         -2.13220       -0.99180        2.62780
C          0.22690        2.61270       -5.00370
H          0.88230        1.81480       -5.41750
H         -0.68910        2.69620       -5.62850
C          0.97660        3.93490       -5.03040
H          1.89760        3.86240       -4.41340
H          0.33220        4.74550       -4.62880
H          1.26130        4.18330       -6.07450
C          6.67000        3.23860        1.46690
C          3.29780        2.02850        2.71780
H          2.27110        2.37290        2.69840
C          4.27840        2.80960        2.10050
H          3.98280        3.73540        1.62280
C          5.62390        2.40300        2.10710
C          5.96510        1.19340        2.73560
H          6.99270        0.85280        2.75710
C          4.98300        0.40910        3.34940
H          5.27780       -0.51570        3.82930
C          3.63910        0.82130        3.35180
O          2.87850       -1.06380        4.53660
C          2.59220        0.00730        4.01830
O          1.31950        0.47480        4.06820
O          7.96380        2.85140        1.49990
O          6.37060        4.28800        0.91510
C          0.25820       -0.17890        4.66150
H          0.09610       -1.15970        4.16380
H          0.47140       -0.35210        5.73870
C         -0.99160        0.69290        4.52830
H         -0.80500        1.64890        5.06250
H         -1.87500        0.20280        4.99260
H          8.66210        3.38850        1.09920

