%chk=PET_uff_101_gaussian.chk
%nproc=4
%mem=4000Mb
#p 6-31g* mp2

Conformer number 101. Energy MM = 233.129 kcal/mol

0 1
C         -1.69320        0.01510        2.68520
C         -4.53010       -0.56420        0.22830
H         -4.79830       -1.29690       -0.52280
C         -3.31770       -0.71090        0.90960
H         -2.68290       -1.55430        0.66750
C         -2.94220        0.20740        1.90600
C         -3.79670        1.28480        2.19310
H         -3.53940        2.00590        2.95880
C         -5.01220        1.42710        1.51730
H         -5.65730        2.25730        1.77680
C         -5.39650        0.49970        0.53420
O         -7.03470       -0.17200       -1.01130
C         -6.70960        0.63040       -0.14580
O         -7.56730        1.61330        0.23330
O         -1.35310        0.90680        3.65170
O         -1.01470       -0.98920        2.51700
C         -8.84770        1.75440       -0.26180
H         -8.81490        1.91950       -1.36040
H         -9.43670        0.83580       -0.04560
C         -9.52370        2.94120        0.40830
H         -8.95570        3.87190        0.19740
H         -9.56800        2.78270        1.50700
H        -10.55790        3.05240        0.01960
C          3.46030        8.09270        3.41770
C          3.40390        4.89210        5.44870
H          3.98950        4.44370        6.24150
C          3.77540        6.15070        4.97360
H          4.63650        6.64020        5.41260
C          3.05050        6.76460        3.93890
C          1.93820        6.09630        3.39890
H          1.36080        6.54320        2.59860
C          1.55970        4.83800        3.88080
H          0.70350        4.34300        3.43990
C          2.29360        4.21990        4.90610
O          2.65280        2.30520        6.20450
C          1.92490        2.86920        5.39710
O          0.79230        2.25390        4.95800
O          2.77950        8.66220        2.39930
O          4.42330        8.67340        3.89590
C          0.57070        0.89920        5.12320
H          1.22190        0.33290        4.42250
H          0.81700        0.59410        6.16490
C         -0.89240        0.53380        4.90080
H         -1.52030        1.04000        5.66460
H         -1.00100       -0.56360        5.05740
H          3.04110        9.51940        2.03500

