%chk=PET_uff_156_gaussian.chk
%nproc=4
%mem=4000Mb
#p 6-31g* mp2

Conformer number 156. Energy MM = 193.815 kcal/mol

0 1
C         -1.50530        0.17060        2.32670
C         -0.70130       -0.82220       -1.24820
H         -1.09950       -1.48570       -2.00550
C         -1.36720       -0.72020       -0.02190
H         -2.25900       -1.31230        0.14100
C         -0.86480        0.11320        0.99190
C          0.30330        0.85410        0.74830
H          0.72080        1.50040        1.51030
C          0.96410        0.75600       -0.47500
H          1.86850        1.33270       -0.62250
C          0.47560       -0.08930       -1.48350
O          0.80600       -0.96260       -3.64000
C          1.21290       -0.21160       -2.76340
O          2.35650        0.49880       -2.94320
O         -0.86010        0.83320        3.32130
O         -2.50780       -0.49030        2.56230
C          3.16340        0.40830       -4.05740
H          3.54520       -0.63110       -4.16040
H          2.58620        0.68120       -4.96750
C          4.33950        1.36080       -3.90500
H          4.92680        1.09920       -2.99890
H          3.97220        2.40500       -3.80980
H          4.99900        1.29010       -4.79520
C          1.17550       -5.02270       -1.09720
C          0.51190       -3.10150        2.10810
H         -0.22940       -3.10290        2.89690
C          0.38200       -4.02210        1.06470
H         -0.45330       -4.71130        1.07910
C          1.31540       -4.04870        0.01440
C          2.38250       -3.13510        0.03180
H          3.11590       -3.12800       -0.76480
C          2.51380       -2.21430        1.07690
H          3.34220       -1.51800        1.05630
C          1.57890       -2.18810        2.12730
O          2.60010       -0.37380        3.21820
C          1.68930       -1.19060        3.22370
O          0.71910       -1.13990        4.17660
O          2.07660       -5.03890       -2.10400
O          0.24470       -5.81530       -1.11010
C          0.47010       -0.06830        5.01970
H          0.49350       -0.40610        6.07690
H          1.22390        0.74000        4.89150
C         -0.90480        0.48980        4.65920
H         -1.15180        1.38080        5.27390
H         -1.66400       -0.29920        4.85730
H          2.00260       -5.66630       -2.83680

