%chk=PET_00047_gaussian.chk
%nproc=4
%mem=4000Mb
#p 6-31g* mp2

Conformer number 00047. Energy MM = 73.475 kcal/mol

0 1
C  1.1983    1.0411    0.3875
C  4.3191    -1.0331    -0.3017
H  4.5803    -2.0217    -0.6774
C  2.9708    -0.6686    -0.2114
H  2.2135    -1.3856    -0.5203
C  2.6147    0.5984    0.2693
C  3.6218    1.4934    0.6573
H  3.3614    2.4821    1.0330
C  4.9700    1.1287    0.5669
H  5.7285    1.8447    0.8754
C  5.3263    -0.1383    0.0862
O  7.0724    -1.6797    -0.4480
C  6.7431    -0.5804    -0.0317
O  7.5853    0.3980    0.3824
O  0.3538    0.0644    -0.0261
O  0.8680    2.1400    0.8036
C  8.9733    0.0514    0.3006
H  9.2380    -0.1721    -0.7389
H  9.1738    -0.8231    0.9297
C  9.7851    1.2336    0.7930
H  9.5790    2.1219    0.1868
H  9.5159    1.4829    1.8248
H  10.8560    1.0168    0.7497
C  -9.6660    0.1548    -0.3751
C  -5.8744    0.3343    -0.1599
H  -5.1146    1.0490    0.1481
C  -7.2217    0.7033    -0.0675
H  -7.4757    1.6921    0.3085
C  -8.2262    -0.1924    -0.4555
C  -7.8744    -1.4595    -0.9364
H  -8.6456    -2.1652    -1.2413
C  -6.5285    -1.8281    -1.0287
H  -6.2711    -2.8174    -1.4048
C  -5.5204    -0.9342    -0.6413
O  -3.7745    -2.4771    -1.1764
C  -4.1043    -1.3783    -0.7603
O  -3.2590    -0.4019    -0.3469
O  -9.8771    1.3944    0.1004
O  -10.5918    -0.5681    -0.6926
C  -1.8729    -0.7549    -0.4314
H  -1.6072    -0.9926    -1.4688
H  -1.6707    -1.6385    0.1864
C  -1.0325    0.4164    0.0580
H  -1.2986    0.6542    1.0953
H  -1.2350    1.3000    -0.5598
H  -10.8535    1.4841    0.0980


