%chk=PET_00033_gaussian.chk
%nproc=4
%mem=4000Mb
#p 6-31g* mp2

Conformer number 00033. Energy MM = 74.378 kcal/mol

0 1
C  1.0576    0.7474    -0.3793
C  4.4070    -0.6829    0.7488
H  4.7760    -1.4245    1.4539
C  3.0261    -0.4685    0.6566
H  2.3629    -1.0494    1.2936
C  2.5156    0.4800    -0.2405
C  3.4016    1.2118    -1.0425
H  3.0230    1.9544    -1.7438
C  4.7808    0.9975    -0.9504
H  5.4537    1.5763    -1.5818
C  5.2925    0.0490    -0.0548
O  7.5531    0.4890    -0.6892
C  6.7686    -0.1391    0.0032
O  7.0920    -1.0850    0.9195
O  0.3430    -0.0621    0.4395
O  0.5962    1.5792    -1.1424
C  8.4939    -1.3569    1.0667
H  8.5831    -2.3835    1.4368
H  9.0116    -1.3166    0.1014
C  9.1098    -0.3982    2.0683
H  8.5821    -0.4518    3.0262
H  9.0331    0.6367    1.7201
H  10.1650    -0.6341    2.2326
C  -9.5291    -0.9078    -0.0844
C  -5.7634    -1.3420    -0.3763
H  -5.0387    -2.1529    -0.3618
C  -7.1208    -1.6493    -0.2249
H  -7.4177    -2.6879    -0.0957
C  -8.0806    -0.6294    -0.2412
C  -7.6742    0.6997    -0.4106
H  -8.4103    1.5020    -0.4262
C  -6.3182    1.0067    -0.5620
H  -6.0179    2.0454    -0.6940
C  -5.3545    -0.0115    -0.5451
O  -3.5519    1.5214    -0.8712
C  -3.9253    0.3719    -0.7098
O  -3.1261    -0.7205    -0.6413
O  -9.7944    -2.2170    0.0682
O  -10.4186    -0.0776    -0.0862
C  -1.7204    -0.4792    -0.8259
H  -1.5524    0.1372    -1.7169
H  -1.2581    -1.4497    -1.0389
C  -1.0821    0.1310    0.4214
H  -1.4794    -0.3607    1.3165
H  -1.3248    1.1948    0.5285
H  -10.7704    -2.2494    0.1572


