%chk=PET_00046_gaussian.chk
%nproc=4
%mem=4000Mb
#p 6-31g* mp2

Conformer number 00046. Energy MM = 73.502 kcal/mol

0 1
C  1.0531    0.8915    -0.1063
C  4.7694    0.7528    -0.7656
H  5.4376    1.0347    -1.5763
C  3.3962    0.9784    -0.9143
H  3.0271    1.4295    -1.8346
C  2.5025    0.6283    0.1076
C  2.9976    0.0488    1.2831
H  2.3303    -0.2338    2.0942
C  4.3709    -0.1765    1.4318
H  4.7408    -0.6282    2.3515
C  5.2650    0.1734    0.4100
O  7.1614    -0.5912    1.6434
C  6.7148    -0.0900    0.6241
O  7.4344    0.2985    -0.4573
O  0.3268    0.4771    0.9611
O  0.6038    1.4063    -1.1174
C  8.8526    0.0945    -0.3695
H  9.2217    0.2896    0.6440
H  9.3228    0.8303    -1.0302
C  9.2086    -1.3063    -0.8306
H  8.8339    -1.4842    -1.8440
H  8.7495    -2.0611    -0.1844
H  10.2923    -1.4532    -0.8239
C  -9.5778    -0.0857    -0.5845
C  -6.2409    -1.7600    -1.0989
H  -5.8694    -2.6873    -1.5329
C  -7.6156    -1.5028    -1.1062
H  -8.2950    -2.2321    -1.5446
C  -8.1128    -0.3159    -0.5544
C  -7.2249    0.6121    0.0043
H  -7.5926    1.5405    0.4361
C  -5.8488    0.3545    0.0118
H  -5.1810    1.0929    0.4494
C  -5.3492    -0.8341    -0.5393
O  -3.4390    -2.1724    -1.0607
C  -3.8963    -1.1584    -0.5584
O  -3.1797    -0.1853    0.0569
O  -9.9327    1.0854    -0.0275
O  -10.4087    -0.8428    -1.0501
C  -1.7644    -0.4153    0.0610
H  -1.5385    -1.3858    0.5200
H  -1.3906    -0.4280    -0.9692
C  -1.0884    0.6930    0.8604
H  -1.4888    0.7058    1.8806
H  -1.3124    1.6829    0.4429
H  -10.9088    1.1021    -0.1182


