%chk=PET_00013_gaussian.chk
%nproc=4
%mem=4000Mb
#p 6-31g* mp2

Conformer number 00013. Energy MM = 74.378 kcal/mol

0 1
C  1.1066    -0.8030    -0.6290
C  4.8392    -0.6404    -1.1693
H  5.5409    -0.8824    -1.9664
C  3.4722    -0.8571    -1.3713
H  3.1317    -1.2649    -2.3222
C  2.5497    -0.5536    -0.3609
C  3.0114    -0.0319    0.8554
H  2.3193    0.2107    1.6586
C  4.3802    0.1848    1.0576
H  4.7110    0.5904    2.0112
C  5.3022    -0.1182    0.0459
O  7.5823    -0.1559    -0.6657
C  6.7673    0.0934    0.2079
O  7.0425    0.5940    1.4378
O  0.3515    -0.4278    0.4320
O  0.6880    -1.2710    -1.6743
C  8.4297    0.8384    1.7152
H  8.5541    0.7760    2.8012
H  9.0675    0.0644    1.2731
C  8.8223    2.2231    1.2356
H  8.1769    2.9837    1.6871
H  8.7065    2.3107    0.1507
H  9.8618    2.4431    1.4947
C  -9.5480    0.1392    0.0760
C  -6.2478    -1.2776    -1.0661
H  -5.8977    -2.1589    -1.6020
C  -7.6174    -1.1164    -0.8335
H  -8.3142    -1.8733    -1.1902
C  -8.0874    0.0103    -0.1480
C  -7.1774    0.9749    0.3028
H  -7.5241    1.8575    0.8361
C  -5.8064    0.8136    0.0700
H  -5.1214    1.5783    0.4289
C  -5.3339    -0.3146    -0.6155
O  -3.4591    -1.5043    -1.4959
C  -3.8875    -0.5368    -0.8897
O  -3.1416    0.4659    -0.3654
O  -9.8761    1.2605    0.7414
O  -10.3968    -0.6552    -0.2829
C  -1.7254    0.3804    -0.6007
H  -1.3093    1.3721    -0.3905
H  -1.5252    0.1876    -1.6612
C  -1.0626    -0.6570    0.3050
H  -1.4859    -0.5895    1.3136
H  -1.2546    -1.6816    -0.0348
H  -10.8527    1.2126    0.8140


