%chk=PET_00040_gaussian.chk
%nproc=4
%mem=4000Mb
#p 6-31g* mp2

Conformer number 00040. Energy MM = 73.649 kcal/mol

0 1
C  1.0779    1.1812    -0.2695
C  4.3995    -0.6832    -0.1020
H  4.7537    -1.7116    -0.1151
C  3.0226    -0.4431    -0.1924
H  2.3478    -1.2923    -0.2715
C  2.5309    0.8695    -0.1771
C  3.4310    1.9380    -0.0683
H  3.0667    2.9643    -0.0523
C  4.8061    1.6980    0.0216
H  5.4903    2.5413    0.1057
C  5.2993    0.3864    0.0051
O  7.5688    1.1072    0.1960
C  6.7718    0.1874    0.1041
O  7.0760    -1.1338    0.0799
O  0.3532    0.0453    -0.4229
O  0.6273    2.3142    -0.2184
C  8.4726    -1.4538    0.1691
H  9.0836    -0.7316    -0.3847
H  8.6089    -2.4271    -0.3135
C  8.8969    -1.5415    1.6230
H  8.2780    -2.2672    2.1609
H  9.9451    -1.8427    1.7037
H  8.7701    -0.5787    2.1281
C  -9.5550    -0.2365    -0.6265
C  -5.8418    -0.6159    -1.3496
H  -5.1871    -0.6634    -2.2168
C  -7.2184    -0.4627    -1.5533
H  -7.5993    -0.3949    -2.5701
C  -8.0901    -0.3979    -0.4589
C  -7.5761    -0.4869    0.8404
H  -8.2430    -0.4374    1.6999
C  -6.2009    -0.6398    1.0440
H  -5.8167    -0.7069    2.0609
C  -5.3255    -0.7053    -0.0491
O  -3.4012    -0.9481    1.3479
C  -3.8713    -0.8681    0.2248
O  -3.1659    -0.9073    -0.9329
O  -9.9264    -0.1598    -1.9164
O  -10.3724    -0.1752    0.2726
C  -1.7483    -1.0711    -0.7807
H  -1.5128    -1.8167    -0.0107
H  -1.3663    -1.4870    -1.7202
C  -1.0627    0.2605    -0.4963
H  -1.4197    0.6816    0.4504
H  -1.2989    0.9705    -1.2985
H  -10.9005    -0.0553    -1.8744


