%chk=PET_00034_gaussian.chk
%nproc=4
%mem=4000Mb
#p 6-31g* mp2

Conformer number 00034. Energy MM = 72.562 kcal/mol

0 1
C  1.0295    0.8116    0.1706
C  4.7746    1.2131    -0.1098
H  5.4619    1.9858    -0.4468
C  3.3986    1.4624    -0.1684
H  3.0465    2.4206    -0.5483
C  2.4807    0.4916    0.2567
C  2.9543    -0.7342    0.7425
H  2.2678    -1.5075    1.0803
C  4.3304    -0.9833    0.8010
H  4.6830    -1.9413    1.1812
C  5.2486    -0.0127    0.3760
O  7.1284    -1.3977    0.8776
C  6.7003    -0.3334    0.4610
O  7.4450    0.7077    0.0138
O  0.2824    -0.2285    0.6140
O  0.5968    1.8712    -0.2531
C  8.8674    0.5178    0.0488
H  9.3207    1.5116    0.1243
H  9.1732    -0.0440    0.9389
C  9.3354    -0.1609    -1.2247
H  10.4247    -0.2575    -1.2350
H  8.8952    -1.1583    -1.3230
H  9.0231    0.4130    -2.1033
C  -9.5689    -0.0111    -0.6120
C  -5.8113    0.4682    -0.9367
H  -5.1197    1.2356    -1.2775
C  -7.1860    0.7262    -0.9969
H  -7.5287    1.6845    -1.3816
C  -8.1041    -0.2401    -0.5668
C  -7.6384    -1.4660    -0.0760
H  -8.3418    -2.2257    0.2613
C  -6.2652    -1.7238    -0.0157
H  -5.9189    -2.6824    0.3682
C  -5.3434    -0.7588    -0.4453
O  -3.4642    -2.1445    0.0681
C  -3.8934    -1.0847    -0.3584
O  -3.1423    -0.0485    -0.8047
O  -9.8922    1.1985    -1.1016
O  -10.4243    -0.8000    -0.2566
C  -1.7221    -0.2631    -0.7895
H  -1.2858    0.4335    -1.5131
H  -1.4697    -1.2660    -1.1563
C  -1.1385    -0.0193    0.6002
H  -1.5718    -0.7186    1.3231
H  -1.3943    0.9821    0.9687
H  -10.8723    1.2095    -1.0732


