%chk=PET_00043_gaussian.chk
%nproc=4
%mem=4000Mb
#p 6-31g* mp2

Conformer number 00043. Energy MM = 73.493 kcal/mol

0 1
C  1.0656    -0.0543    0.9257
C  4.8176    -0.2068    1.3340
H  5.5163    -0.3409    2.1567
C  3.4450    -0.2112    1.6078
H  3.1067    -0.3489    2.6340
C  2.5124    -0.0413    0.5748
C  2.9680    0.1321    -0.7387
H  2.2699    0.2631    -1.5623
C  4.3406    0.1367    -1.0124
H  4.6793    0.2722    -2.0388
C  5.2734    -0.0324    0.0206
O  7.1329    0.1469    -1.4670
C  6.7205    -0.0176    -0.3300
O  7.4808    -0.2058    0.7767
O  0.3029    0.1496    -0.1766
O  0.6501    -0.2222    2.0609
C  8.9005    -0.2151    0.5644
H  9.3401    -0.8123    1.3700
H  9.1595    -0.7078    -0.3798
C  9.4466    1.1992    0.6214
H  9.1802    1.6761    1.5703
H  9.0212    1.8169    -0.1758
H  10.5355    1.1989    0.5197
C  -9.6086    -0.1434    -0.2061
C  -6.1868    -1.6125    -0.7863
H  -5.7539    -2.6027    -0.9216
C  -7.5658    -1.4894    -0.5887
H  -8.1870    -2.3836    -0.5729
C  -8.1420    -0.2256    -0.4123
C  -7.3285    0.9144    -0.4350
H  -7.7581    1.9047    -0.2996
C  -5.9481    0.7913    -0.6329
H  -5.3394    1.6925    -0.6463
C  -5.3696    -0.4736    -0.8096
O  -3.3852    -1.7530    -1.1820
C  -3.9084    -0.6621    -1.0231
O  -3.2630    0.5305    -1.0080
O  -10.0423    1.1192    -0.0473
O  -10.3776    -1.0858    -0.1759
C  -1.8447    0.4621    -1.2163
H  -1.5925    -0.2452    -2.0165
H  -1.5217    1.4448    -1.5788
C  -1.1084    0.1279    0.0762
H  -1.4020    -0.8635    0.4396
H  -1.3678    0.8660    0.8451
H  -11.0099    1.0210    0.0777


