%chk=PET_00004_gaussian.chk
%nproc=4
%mem=4000Mb
#p 6-31g* mp2

Conformer number 00004. Energy MM = 74.176 kcal/mol

0 1
C  1.0992    -0.5519    -0.5710
C  4.8439    -0.1633    -0.8745
H  5.5689    -0.1201    -1.6842
C  3.4897    -0.3224    -1.1902
H  3.1916    -0.3999    -2.2352
C  2.5244    -0.3828    -0.1753
C  2.9286    -0.2831    1.1625
H  2.2043    -0.3284    1.9725
C  4.2828    -0.1238    1.4780
H  4.5816    -0.0480    2.5228
C  5.2484    -0.0629    0.4632
O  7.0399    0.2066    2.0189
C  6.6737    0.1081    0.8587
O  7.4717    0.1398    -0.2368
O  0.2984    -0.5745    0.5218
O  0.7306    -0.6441    -1.7299
C  8.8754    0.2986    0.0177
H  9.4063    -0.1471    -0.8299
H  9.1828    -0.2508    0.9150
C  9.2244    1.7714    0.1209
H  8.9120    2.3047    -0.7829
H  10.3013    1.9063    0.2561
H  8.7051    2.2401    0.9628
C  -9.5964    -0.1308    -0.0750
C  -6.2069    -0.9724    -1.4914
H  -5.8054    -1.5946    -2.2902
C  -7.5891    -0.9345    -1.2815
H  -8.2442    -1.5269    -1.9183
C  -8.1248    -0.1399    -0.2608
C  -7.2678    0.6169    0.5484
H  -7.6658    1.2410    1.3457
C  -5.8842    0.5788    0.3384
H  -5.2412    1.1773    0.9797
C  -5.3459    -0.2169    -0.6829
O  -3.3977    -0.9725    -1.8401
C  -3.8833    -0.2953    -0.9498
O  -3.1946    0.4697    -0.0683
O  -9.9893    0.6684    0.9323
O  -10.4018    -0.7601    -0.7350
C  -1.7685    0.5028    -0.2502
H  -1.3973    1.3661    0.3136
H  -1.5209    0.6992    -1.3000
C  -1.1029    -0.7722    0.2662
H  -1.5600    -1.0667    1.2177
H  -1.2523    -1.6184    -0.4147
H  -10.9656    0.5769    0.9369


