%chk=PET_00003_gaussian.chk
%nproc=4
%mem=4000Mb
#p 6-31g* mp2

Conformer number 00003. Energy MM = 74.378 kcal/mol

0 1
C  1.1077    -0.6363    -0.7055
C  4.8135    -1.3029    -0.4351
H  5.5041    -2.0957    -0.7197
C  3.4527    -1.4425    -0.7272
H  3.1059    -2.3417    -1.2349
C  2.5447    -0.4362    -0.3715
C  3.0146    0.7132    0.2789
H  2.3339    1.5120    0.5644
C  4.3772    0.8530    0.5710
H  4.7147    1.7556    1.0758
C  5.2846    -0.1548    0.2159
O  7.5458    -0.9251    0.2009
C  6.7427    -0.0571    0.5025
O  7.0272    1.1120    1.1279
O  0.3650    0.4091    -0.2671
O  0.6829    -1.6217    -1.2847
C  8.4083    1.3221    1.4585
H  8.8890    0.3895    1.7758
H  8.4316    2.0035    2.3153
C  9.1364    1.9518    0.2859
H  10.1756    2.1708    0.5470
H  8.6445    2.8819    -0.0173
H  9.1271    1.2883    -0.5845
C  -9.5560    0.3068    -0.1567
C  -6.2268    -0.8033    -1.5304
H  -5.8517    -1.2679    -2.4414
C  -7.5956    -0.5443    -1.4070
H  -8.2668    -0.8096    -2.2223
C  -8.0975    0.0508    -0.2433
C  -7.2204    0.3846    0.7964
H  -7.5922    0.8464    1.7086
C  -5.8501    0.1254    0.6729
H  -5.1910    0.3926    1.4957
C  -5.3456    -0.4697    -0.4922
O  -3.4431    -1.2961    -1.6767
C  -3.8985    -0.7669    -0.6768
O  -3.1849    -0.3583    0.4004
O  -9.9165    0.8780    1.0059
O  -10.3773    0.0473    -1.0160
C  -1.7731    -0.6282    0.3541
H  -1.3967    -0.5214    1.3777
H  -1.5927    -1.6726    0.0737
C  -1.0402    0.3468    -0.5669
H  -1.4391    1.3576    -0.4253
H  -1.1948    0.1069    -1.6255
H  -10.8877    0.9846    0.9233


