%chk=PET_00037_gaussian.chk
%nproc=4
%mem=4000Mb
#p 6-31g* mp2

Conformer number 00037. Energy MM = 73.648 kcal/mol

0 1
C  1.0858    -1.0017    0.7570
C  4.8337    -1.3757    1.0104
H  5.5369    -2.0569    1.4878
C  3.4602    -1.5902    1.1648
H  3.1160    -2.4354    1.7593
C  2.5359    -0.7273    0.5606
C  3.0023    0.3521    -0.2024
H  2.3087    1.0359    -0.6865
C  4.3776    0.5665    -0.3573
H  4.7119    1.4114    -0.9553
C  5.3014    -0.2964    0.2487
O  7.5910    -0.8490    0.6472
C  6.7735    -0.1138    0.1174
O  7.0520    0.9652    -0.6553
O  0.3322    -0.0481    0.1555
O  0.6599    -1.9579    1.3844
C  8.4456    1.2428    -0.8595
H  8.5282    1.7823    -1.8087
H  9.0256    0.3185    -0.9631
C  8.9765    2.1088    0.2674
H  10.0224    2.3756    0.0917
H  8.3874    3.0275    0.3563
H  8.9047    1.5903    1.2287
C  -9.5689    -0.2662    -0.3067
C  -6.1124    -0.7656    -1.7232
H  -5.6582    -1.3058    -2.5528
C  -7.4956    -0.8422    -1.5317
H  -8.0989    -1.4397    -2.2135
C  -8.0988    -0.1559    -0.4708
C  -7.3082    0.6076    0.3973
H  -7.7590    1.1474    1.2274
C  -5.9236    0.6845    0.2056
H  -5.3330    1.2844    0.8943
C  -5.3180    -0.0021    -0.8563
O  -3.3040    -0.5449    -2.0237
C  -3.8511    0.0445    -1.1060
O  -3.2304    0.8163    -0.1796
O  -10.0295    0.4325    0.7455
O  -10.3193    -0.9058    -1.0197
C  -1.8087    0.9351    -0.3350
H  -1.5017    1.8556    0.1747
H  -1.5323    1.0746    -1.3879
C  -1.0813    -0.2552    0.2798
H  -1.3612    -0.3469    1.3365
H  -1.3630    -1.1829    -0.2312
H  -10.9961    0.2685    0.7312


