%chk=PET_00019_gaussian.chk
%nproc=4
%mem=4000Mb
#p 6-31g* mp2

Conformer number 00019. Energy MM = 72.118 kcal/mol

0 1
C  1.0463    0.7356    -0.0376
C  4.3794    -0.9560    -0.7751
H  4.7601    -1.8062    -1.3399
C  3.0060    -0.6869    -0.7846
H  2.3494    -1.3368    -1.3591
C  2.4968    0.4019    -0.0647
C  3.3766    1.2160    0.6626
H  2.9966    2.0666    1.2269
C  4.7500    0.9468    0.6719
H  5.4076    1.5963    1.2453
C  5.2594    -0.1422    -0.0478
O  7.1722    -1.4201    -0.6951
C  6.7101    -0.4761    -0.0742
O  7.4171    0.4046    0.6760
O  0.3378    -0.1465    -0.7835
O  0.5826    1.6765    0.5862
C  8.8275    0.1529    0.7035
H  9.2330    0.2090    -0.3130
H  9.0176    -0.8413    1.1232
C  9.4789    1.2096    1.5739
H  9.2794    2.2112    1.1787
H  9.0680    1.1802    2.5885
H  10.5608    1.0594    1.6264
C  -9.5839    0.0671    -0.4476
C  -6.2504    -1.5526    -1.1316
H  -5.8758    -2.4025    -1.7005
C  -7.6213    -1.2757    -1.1373
H  -8.2944    -1.9123    -1.7095
C  -8.1232    -0.1882    -0.4121
C  -7.2438    0.6204    0.3189
H  -7.6150    1.4697    0.8887
C  -5.8716    0.3433    0.3247
H  -5.2105    0.9868    0.9011
C  -5.3673    -0.7452    -0.4011
O  -3.4574    -2.0246    -1.0571
C  -3.9180    -1.0842    -0.4304
O  -3.2059    -0.2066    0.3177
O  -9.9442    1.1348    0.2856
O  -10.4069    -0.5889    -1.0582
C  -1.7924    -0.4536    0.3815
H  -1.4226    0.0377    1.2876
H  -1.5834    -1.5221    0.5192
C  -1.0764    0.0958    -0.8500
H  -1.2884    1.1634    -0.9898
H  -1.4434    -0.3983    -1.7558
H  -10.9169    1.1815    0.1711


