%chk=PET_00028_gaussian.chk
%nproc=4
%mem=4000Mb
#p 6-31g* mp2

Conformer number 00028. Energy MM = 72.562 kcal/mol

0 1
C  1.0215    0.4643    0.5810
C  4.3811    -1.0884    -0.3232
H  4.7700    -2.0200    -0.7324
C  3.0002    -0.9402    -0.1498
H  2.3463    -1.7635    -0.4294
C  2.4802    0.2501    0.3754
C  3.3568    1.2872    0.7242
H  2.9685    2.2185    1.1343
C  4.7377    1.1387    0.5508
H  5.3923    1.9608    0.8311
C  5.2580    -0.0514    0.0253
O  7.1859    -1.2978    -0.6332
C  6.7172    -0.2657    -0.1806
O  7.4183    0.8289    0.2046
O  0.3176    -0.6263    0.1917
O  0.5486    1.4946    1.0330
C  8.8430    0.7431    0.0513
H  9.2147    1.7670    -0.0600
H  9.1142    0.2011    -0.8620
C  9.4633    0.1060    1.2805
H  9.1838    0.6596    2.1829
H  10.5539    0.0892    1.2002
H  9.1068    -0.9203    1.4135
C  -9.5899    -0.1206    -0.2383
C  -6.2307    -1.5903    -1.1098
H  -5.8479    -2.5251    -1.5170
C  -7.6091    -1.4346    -0.9315
H  -8.2799    -2.2487    -1.2017
C  -8.1214    -0.2405    -0.4099
C  -7.2449    0.7969    -0.0678
H  -7.6241    1.7321    0.3387
C  -5.8651    0.6412    -0.2462
H  -5.2064    1.4626    0.0272
C  -5.3504    -0.5540    -0.7683
O  -3.4232    -1.8055    -1.4276
C  -3.8928    -0.7730    -0.9775
O  -3.1850    0.3170    -0.5930
O  -9.9598    1.0684    0.2685
O  -10.4110    -0.9760    -0.5115
C  -1.7631    0.2261    -0.7745
H  -1.5161    -0.2210    -1.7457
H  -1.3799    1.2511    -0.8164
C  -1.1050    -0.5402    0.3705
H  -1.4851    -1.5664    0.4099
H  -1.3551    -0.0955    1.3420
H  -10.9367    1.0061    0.3256


