%chk=PET_00027_gaussian.chk
%nproc=4
%mem=4000Mb
#p 6-31g* mp2

Conformer number 00027. Energy MM = 72.118 kcal/mol

0 1
C  1.0239    0.2904    0.6659
C  4.3673    -1.1963    -0.3955
H  4.7462    -2.0815    -0.9048
C  2.9877    -1.0501    -0.2108
H  2.3246    -1.8284    -0.5822
C  2.4807    0.0812    0.4420
C  3.3688    1.0615    0.9066
H  2.9906    1.9466    1.4165
C  4.7484    0.9151    0.7219
H  5.4124    1.6924    1.0935
C  5.2557    -0.2161    0.0689
O  7.1731    -1.4031    -0.7219
C  6.7127    -0.4247    -0.1555
O  7.4274    0.6099    0.3516
O  0.3079    -0.7408    0.1556
O  0.5622    1.2702    1.2282
C  8.8442    0.4863    0.1767
H  9.0817    0.4339    -0.8918
H  9.2014    -0.4193    0.6798
C  9.5039    1.7065    0.7889
H  10.5910    1.6584    0.6800
H  9.2579    1.7844    1.8531
H  9.1405    2.6219    0.3104
C  -9.5904    -0.0606    -0.2459
C  -6.2462    -1.4682    -1.2650
H  -5.8734    -2.3568    -1.7726
C  -7.6233    -1.3152    -1.0748
H  -8.3031    -2.0854    -1.4360
C  -8.1228    -0.1799    -0.4251
C  -7.2347    0.8015    0.0329
H  -7.6039    1.6906    0.5397
C  -5.8562    0.6485    -0.1574
H  -5.1884    1.4257    0.2076
C  -5.3544    -0.4879    -0.8077
O  -3.4402    -1.6834    -1.5962
C  -3.8987    -0.7013    -1.0355
O  -3.1789    0.3298    -0.5300
O  -9.9475    1.0694    0.3890
O  -10.4210    -0.8695    -0.6149
C  -1.7575    0.2410    -0.7161
H  -1.5118    -0.0984    -1.7303
H  -1.3612    1.2592    -0.6425
C  -1.1142    -0.6564    0.3386
H  -1.5076    -1.6755    0.2624
H  -1.3630    -0.3192    1.3527
H  -10.9253    1.0139    0.4358


