%chk=PET_00005_gaussian.chk
%nproc=4
%mem=4000Mb
#p 6-31g* mp2

Conformer number 00005. Energy MM = 72.527 kcal/mol

0 1
C  1.0501    0.8317    -0.2072
C  4.7522    1.1916    0.4487
H  5.4045    1.9356    0.9006
C  3.3767    1.4442    0.3955
H  2.9899    2.3763    0.8054
C  2.5033    0.5100    -0.1790
C  3.0210    -0.6826    -0.7012
H  2.3696    -1.4270    -1.1537
C  4.3967    -0.9350    -0.6477
H  4.7839    -1.8669    -1.0580
C  5.2705    -0.0010    -0.0734
O  7.1899    -1.3594    -0.4908
C  6.7239    -0.3235    -0.0441
O  7.4228    0.6803    0.5409
O  0.3485    -0.1715    -0.7883
O  0.5791    1.8625    0.2456
C  8.8424    0.4851    0.6261
H  9.3001    1.4791    0.6615
H  9.2305    -0.0164    -0.2679
C  9.1896    -0.2816    1.8883
H  8.7427    -1.2808    1.8766
H  10.2732    -0.3849    1.9937
H  8.7960    0.2329    2.7711
C  -9.5611    0.0773    -0.4341
C  -6.2239    -1.6851    -0.8735
H  -5.8384    -2.6171    -1.2847
C  -7.5986    -1.4308    -0.9263
H  -8.2574    -2.1694    -1.3776
C  -8.1121    -0.2385    -0.4022
C  -7.2414    0.6954    0.1739
H  -7.6302    1.6261    0.5848
C  -5.8663    0.4411    0.2267
H  -5.2136    1.1838    0.6802
C  -5.3498    -0.7520    -0.2975
O  -3.4263    -2.1056    -0.7230
C  -3.8969    -1.0750    -0.2695
O  -3.1945    -0.0726    0.3124
O  -10.2933    -0.8916    -1.0102
O  -10.0783    1.0894    0.0006
C  -1.7785    -0.2896    0.4165
H  -1.4144    0.3560    1.2226
H  -1.5582    -1.3155    0.7379
C  -1.0677    0.0444    -0.8929
H  -1.2886    1.0699    -1.2147
H  -1.4311    -0.6019    -1.6988
H  -11.2124    -0.5536    -0.9618


