%chk=PET_00015_gaussian.chk
%nproc=4
%mem=4000Mb
#p 6-31g* mp2

Conformer number 00015. Energy MM = 72.609 kcal/mol

0 1
C  1.0165    0.9645    0.2391
C  4.4436    -0.5935    -0.3629
H  4.8701    -1.4222    -0.9239
C  3.0623    -0.3727    -0.4323
H  2.4568    -1.0367    -1.0456
C  2.4785    0.6860    0.2771
C  3.2911    1.5208    1.0557
H  2.8552    2.3487    1.6132
C  4.6706    1.3001    1.1249
H  5.2864    1.9595    1.7351
C  5.2558    0.2419    0.4165
O  7.4501    0.7723    1.1969
C  6.7288    0.0524    0.5253
O  7.1283    -1.0089    -0.2182
O  0.3788    0.0657    -0.5499
O  0.4872    1.8784    0.8504
C  8.5348    -1.2946    -0.1922
H  8.6481    -2.3620    -0.4083
H  8.9589    -1.1210    0.8035
C  9.2531    -0.4806    -1.2519
H  9.1545    0.5920    -1.0573
H  10.3166    -0.7339    -1.2809
H  8.8184    -0.6664    -2.2395
C  -9.5469    -0.1467    -0.6970
C  -5.8922    0.2832    0.2586
H  -5.2888    0.9495    0.8712
C  -7.2733    0.5006    0.1873
H  -7.7086    1.3279    0.7440
C  -8.0798    -0.3387    -0.5915
C  -7.4961    -1.3970    -1.2986
H  -8.1121    -2.0569    -1.9074
C  -6.1164    -1.6143    -1.2275
H  -5.6777    -2.4420    -1.7830
C  -5.3061    -0.7760    -0.4490
O  -3.3122    -1.9655    -1.0191
C  -3.8436    -1.0516    -0.4094
O  -3.2079    -0.1507    0.3788
O  -9.9888    0.8978    0.0248
O  -10.3095    -0.8323    -1.3519
C  -1.7898    -0.3370    0.5105
H  -1.4865    0.1613    1.4373
H  -1.5416    -1.3967    0.6506
C  -1.0391    0.2543    -0.6803
H  -1.3438    -0.2427    -1.6074
H  -1.2859    1.3145    -0.8192
H  -10.9558    0.9035    -0.1369


