%chk=PET_00031_gaussian.chk
%nproc=4
%mem=4000Mb
#p 6-31g* mp2

Conformer number 00031. Energy MM = 73.493 kcal/mol

0 1
C  1.0924    0.9076    -0.1633
C  4.3061    -1.0691    0.3684
H  4.6125    -2.0778    0.6426
C  2.9422    -0.7651    0.2885
H  2.2183    -1.5481    0.5019
C  2.5280    0.5263    -0.0631
C  3.4931    1.5064    -0.3346
H  3.1871    2.5147    -0.6110
C  4.8569    1.2023    -0.2549
H  5.5815    1.9841    -0.4713
C  5.2713    -0.0888    0.0977
O  7.0835    -1.5861    0.5188
C  6.7073    -0.4696    0.1996
O  7.5027    0.5853    -0.1044
O  0.2942    -0.1410    0.1557
O  0.7131    2.0219    -0.4858
C  8.9157    0.3394    -0.0448
H  9.1612    -0.6659    -0.4061
H  9.3931    1.0515    -0.7258
C  9.4257    0.5626    1.3665
H  8.9623    -0.1390    2.0673
H  10.5110    0.4354    1.4113
H  9.1734    1.5707    1.7114
C  -9.6031    0.0322    -0.4250
C  -6.1612    -0.8129    -1.7067
H  -5.7062    -1.0837    -2.6586
C  -7.5370    -0.5680    -1.6506
H  -8.1337    -0.6512    -2.5577
C  -8.1411    -0.2182    -0.4369
C  -7.3590    -0.1152    0.7204
H  -7.8106    0.1555    1.6724
C  -5.9818    -0.3605    0.6643
H  -5.3976    -0.2738    1.5777
C  -5.3752    -0.7108    -0.5503
O  -3.3689    -1.2910    -1.7128
C  -3.9161    -0.9819    -0.6668
O  -3.3022    -0.8306    0.5329
O  -10.0654    0.3609    0.7939
O  -10.3459    -0.0393    -1.3861
C  -1.8889    -1.0802    0.5336
H  -1.6021    -1.3224    1.5634
H  -1.6405    -1.9698    -0.0590
C  -1.1085    0.1410    0.0604
H  -1.3658    1.0037    0.6872
H  -1.3657    0.3823    -0.9773
H  -11.0262    0.4958    0.6519


