%chk=PET_00016_gaussian.chk
%nproc=4
%mem=4000Mb
#p 6-31g* mp2

Conformer number 00016. Energy MM = 73.422 kcal/mol

0 1
C  1.0751    0.7164    -0.3248
C  4.4853    -0.9208    -0.7771
H  4.9321    -1.7452    -1.3316
C  3.1172    -0.6618    -0.9185
H  2.5311    -1.2932    -1.5824
C  2.5241    0.3940    -0.2139
C  3.3149    1.1850    0.6314
H  2.8688    2.0095    1.1862
C  4.6829    0.9257    0.7729
H  5.2700    1.5569    1.4362
C  5.2764    -0.1302    0.0685
O  7.2588    -1.3625    -0.4355
C  6.7260    -0.4523    0.1788
O  7.3392    0.3991    1.0374
O  0.4526    -0.1507    -1.1609
O  0.5424    1.6381    0.2717
C  8.7457    0.1858    1.2300
H  8.9955    0.5780    2.2213
H  8.9900    -0.8827    1.2355
C  9.5370    0.9315    0.1720
H  9.2820    1.9963    0.1806
H  9.3042    0.5566    -0.8297
H  10.6116    0.8243    0.3440
C  -9.5543    0.0484    -0.8472
C  -5.7893    0.1247    -1.0436
H  -5.0408    0.5686    -1.6957
C  -7.1426    0.3424    -1.3257
H  -7.4198    0.9471    -2.1880
C  -8.1344    -0.2111    -0.5058
C  -7.7643    -0.9848    0.6005
H  -8.5183    -1.4230    1.2506
C  -6.4113    -1.2025    0.8826
H  -6.1374    -1.8057    1.7472
C  -5.4162    -0.6506    0.0630
O  -3.6482    -1.5689    1.3828
C  -3.9931    -0.9156    0.4114
O  -3.1629    -0.3415    -0.4941
O  -10.4114    -0.5299    0.0118
O  -9.9499    0.7062    -1.7914
C  -1.7697    -0.5348    -0.2152
H  -1.5164    -0.0622    0.7407
H  -1.5429    -1.6054    -0.1395
C  -0.9520    0.0781    -1.3466
H  -1.1696    1.1471    -1.4657
H  -1.2345    -0.3880    -2.2975
H  -11.2951    -0.2778    -0.3297


