%chk=PET_00032_gaussian.chk
%nproc=4
%mem=4000Mb
#p 6-31g* mp2

Conformer number 00032. Energy MM = 74.177 kcal/mol

0 1
C  1.0291    0.1060    0.5605
C  4.7458    -0.3186    1.0819
H  5.3994    -0.5995    1.9048
C  3.3643    -0.2775    1.3024
H  2.9743    -0.5261    2.2888
C  2.4885    0.0804    0.2677
C  3.0102    0.3987    -0.9931
H  2.3573    0.6823    -1.8153
C  4.3917    0.3573    -1.2134
H  4.7823    0.6079    -2.1990
C  5.2677    -0.0014    -0.1790
O  7.1964    0.2446    -1.5654
C  6.7274    -0.0278    -0.4719
O  7.4283    -0.3869    0.6316
O  0.3253    0.4538    -0.5440
O  0.5586    -0.1643    1.6526
C  8.8537    -0.4491    0.4730
H  9.2273    -1.1600    1.2173
H  9.1286    -0.8411    -0.5130
C  9.4669    0.9165    0.7189
H  9.1083    1.6460    -0.0142
H  10.5578    0.8684    0.6587
H  9.1836    1.2928    1.7074
C  -9.5598    -0.2505    -1.0417
C  -5.8014    -0.7623    -1.3007
H  -5.0831    -1.1294    -2.0301
C  -7.1593    -0.7481    -1.6412
H  -7.4628    -1.1023    -2.6240
C  -8.1112    -0.2839    -0.7246
C  -7.6963    0.1657    0.5348
H  -8.4262    0.5283    1.2570
C  -6.3399    0.1514    0.8750
H  -6.0330    0.5034    1.8591
C  -5.3841    -0.3118    -0.0402
O  -3.5734    0.0730    1.4694
C  -3.9541    -0.3041    0.3740
O  -3.1631    -0.7558    -0.6295
O  -9.8335    -0.7071    -2.2763
O  -10.4427    0.1386    -0.3003
C  -1.7578    -0.8287    -0.3332
H  -1.3066    -1.4745    -1.0950
H  -1.5944    -1.3344    0.6258
C  -1.0993    0.5497    -0.3732
H  -1.3392    1.1455    0.5154
H  -1.4835    1.1165    -1.2288
H  -10.8085    -0.6283    -2.3445


