%chk=PET_00001_gaussian.chk
%nproc=4
%mem=4000Mb
#p 6-31g* mp2

Conformer number 00001. Energy MM = 72.527 kcal/mol

0 1
C  1.0390    0.7487    0.1233
C  4.3905    -0.8817    -0.6669
H  4.7837    -1.6919    -1.2797
C  3.0164    -0.6164    -0.6820
H  2.3720    -1.2291    -1.3087
C  2.4911    0.4216    0.0989
C  3.3555    1.1887    0.8925
H  2.9629    1.9996    1.5047
C  4.7296    0.9233    0.9073
H  5.3749    1.5361    1.5328
C  5.2553    -0.1148    0.1268
O  7.1812    -1.3405    -0.5750
C  6.7077    -0.4423    0.1024
O  7.3973    0.3895    0.9214
O  0.3465    -0.0845    -0.6907
O  0.5614    1.6454    0.7995
C  8.8146    0.1700    0.9841
H  9.0548    -0.8988    0.9456
H  9.1526    0.5407    1.9573
C  9.5117    0.9367    -0.1240
H  9.1899    0.5834    -1.1088
H  10.5970    0.8241    -0.0501
H  9.2621    2.0015    -0.0705
C  -9.5674    0.1274    -0.4543
C  -6.2253    -1.4987    -1.2432
H  -5.8338    -2.3085    -1.8573
C  -7.5986    -1.2316    -1.2572
H  -8.2503    -1.8383    -1.8821
C  -8.1197    -0.1949    -0.4738
C  -7.2581    0.5708    0.3221
H  -7.6529    1.3795    0.9355
C  -5.8845    0.3037    0.3362
H  -5.2389    0.9140    0.9640
C  -5.3604    -0.7337    -0.4475
O  -3.4314    -1.9583    -1.1495
C  -3.9086    -1.0620    -0.4725
O  -3.2152    -0.2301    0.3423
O  -10.2907    -0.6731    -1.2562
O  -10.0910    1.0101    0.1994
C  -1.8016    -0.4733    0.4158
H  -1.4509    -0.0392    1.3580
H  -1.5883    -1.5473    0.4885
C  -1.0674    0.1577    -0.7649
H  -1.2813    1.2315    -0.8381
H  -1.4173    -0.2771    -1.7071
H  -11.2100    -0.3512    -1.1445


