%chk=PET_00002_gaussian.chk
%nproc=4
%mem=4000Mb
#p 6-31g* mp2

Conformer number 00002. Energy MM = 72.562 kcal/mol

0 1
C  1.0137    0.3621    0.7442
C  4.3815    -1.1655    -0.1720
H  4.7727    -2.0748    -0.6268
C  2.9981    -1.0151    -0.0222
H  2.3446    -1.8143    -0.3651
C  2.4752    0.1470    0.5602
C  3.3513    1.1536    0.9898
H  2.9606    2.0629    1.4449
C  4.7347    1.0030    0.8399
H  5.3889    1.8014    1.1829
C  5.2580    -0.1590    0.2575
O  7.1907    -1.3781    -0.4370
C  6.7199    -0.3738    0.0722
O  7.4204    0.6889    0.5396
O  0.3107    -0.6972    0.2751
O  0.5383    1.3683    1.2451
C  8.8478    0.5977    0.4177
H  9.1992    -0.4245    0.5993
H  9.2765    1.2294    1.2025
C  9.2894    1.1037    -0.9426
H  8.9314    2.1253    -1.1075
H  8.8729    0.4871    -1.7454
H  10.3798    1.0941    -1.0248
C  -9.5795    -0.0757    -0.3542
C  -5.8497    0.6508    -0.2307
H  -5.1913    1.4486    0.1058
C  -7.2321    0.8085    -0.0755
H  -7.6135    1.7217    0.3764
C  -8.1084    -0.1989    -0.4984
C  -7.5932    -1.3650    -1.0775
H  -8.2639    -2.1556    -1.4107
C  -6.2123    -1.5227    -1.2325
H  -5.8273    -2.4354    -1.6852
C  -5.3322    -0.5164    -0.8102
O  -3.3998    -1.7448    -1.4972
C  -3.8718    -0.7362    -0.9981
O  -3.1648    0.3228    -0.5338
O  -9.9521    1.0848    0.2131
O  -10.4006    -0.9060    -0.6962
C  -1.7397    0.2296    -0.6873
H  -1.3477    1.2517    -0.6598
H  -1.4734    -0.1620    -1.6772
C  -1.1150    -0.6087    0.4255
H  -1.5040    -1.6319    0.3955
H  -1.3846    -0.2195    1.4155
H  -10.9304    1.0283    0.2437


