%chk=PET_00029_gaussian.chk
%nproc=4
%mem=4000Mb
#p 6-31g* mp2

Conformer number 00029. Energy MM = 72.609 kcal/mol

0 1
C  1.0175    0.9653    0.2321
C  4.4431    -0.5992    -0.3615
H  4.8687    -1.4316    -0.9177
C  3.0620    -0.3776    -0.4319
H  2.4557    -1.0447    -1.0410
C  2.4792    0.6858    0.2714
C  3.2928    1.5244    1.0449
H  2.8578    2.3560    1.5976
C  4.6722    1.3030    1.1150
H  5.2887    1.9654    1.7211
C  5.2562    0.2400    0.4127
O  7.4512    0.7732    1.1894
C  6.7292    0.0499    0.5222
O  7.1274    -1.0161    -0.2150
O  0.3789    0.0624    -0.5513
O  0.4892    1.8832    0.8382
C  8.5337    -1.3029    -0.1877
H  8.9583    -1.1238    0.8068
H  8.6460    -2.3717    -0.3974
C  9.2525    -0.4959    -1.2525
H  8.8173    -0.6872    -2.2389
H  9.1548    0.5780    -1.0643
H  10.3157    -0.7503    -1.2802
C  -9.5471    -0.1425    -0.6941
C  -6.1179    -1.6161    -1.2170
H  -5.6801    -2.4474    -1.7677
C  -7.4975    -1.3980    -1.2889
H  -8.1143    -2.0610    -1.8938
C  -8.0801    -0.3352    -0.5880
C  -7.2727    0.5081    0.1857
H  -7.7071    1.3390    0.7376
C  -5.8917    0.2899    0.2579
H  -5.2876    0.9593    0.8664
C  -5.3067    -0.7739    -0.4436
O  -3.3140    -1.9684    -1.0073
C  -3.8445    -1.0505    -0.4029
O  -3.2078    -0.1455    0.3797
O  -9.9879    0.9065    0.0218
O  -10.3104    -0.8313    -1.3448
C  -1.7898    -0.3322    0.5122
H  -1.5424    -1.3912    0.6584
H  -1.4858    0.1714    1.4358
C  -1.0390    0.2514    -0.6824
H  -1.3444    -0.2508    -1.6064
H  -1.2849    1.3110    -0.8274
H  -10.9550    0.9120    -0.1397


