%chk=PET_00021_gaussian.chk
%nproc=4
%mem=4000Mb
#p 6-31g* mp2

Conformer number 00021. Energy MM = 74.266 kcal/mol

0 1
C  1.0167    0.7016    0.4836
C  4.4486    -0.9407    0.2342
H  4.8640    -1.9426    0.1505
C  3.0577    -0.7909    0.3010
H  2.4337    -1.6812    0.2686
C  2.4879    0.4852    0.4096
C  3.3246    1.6085    0.4516
H  2.8995    2.6078    0.5375
C  4.7137    1.4588    0.3846
H  5.3477    2.3438    0.4187
C  5.2847    0.1837    0.2755
O  7.5106    1.0500    0.2331
C  6.7688    0.0812    0.2071
O  7.1521    -1.2160    0.1108
O  0.3553    -0.4783    0.4006
O  0.5037    1.8024    0.5925
C  8.5677    -1.4441    0.0405
H  8.7486    -2.4515    0.4295
H  9.1167    -0.7472    0.6841
C  9.0395    -1.3608    -1.3989
H  8.8693    -0.3611    -1.8110
H  8.4824    -2.0634    -2.0274
H  10.1061    -1.5913    -1.4714
C  -9.4512    -1.1160    -0.8716
C  -5.7000    -0.9777    -1.2302
H  -4.9405    -1.5067    -1.8013
C  -7.0404    -1.3476    -1.3875
H  -7.2970    -2.1536    -2.0735
C  -8.0458    -0.6868    -0.6700
C  -7.7022    0.3485    0.2074
H  -8.4673    0.8754    0.7735
C  -6.3621    0.7182    0.3647
H  -6.1090    1.5263    1.0500
C  -5.3533    0.0581    -0.3517
O  -3.6254    1.3962    0.6117
C  -3.9450    0.4934    -0.1434
O  -3.0974    -0.2545    -0.8907
O  -10.3236    -0.4085    -0.1333
O  -9.8233    -2.0063    -1.6130
C  -1.7065    0.1000    -0.8019
H  -1.2053    -0.3675    -1.6570
H  -1.5782    1.1811    -0.9312
C  -1.0774    -0.3999    0.4981
H  -1.3693    0.2140    1.3583
H  -1.4359    -1.4125    0.7150
H  -11.1957    -0.7923    -0.3642


