%chk=PET_00008_gaussian.chk
%nproc=4
%mem=4000Mb
#p 6-31g* mp2

Conformer number 00008. Energy MM = 73.569 kcal/mol

0 1
C  1.0940    0.6155    -0.9137
C  4.7799    0.0014    -1.4484
H  5.4329    -0.2578    -2.2807
C  3.4068    0.1440    -1.6737
H  3.0131    -0.0067    -2.6780
C  2.5465    0.4766    -0.6188
C  3.0762    0.6649    0.6653
H  2.4330    0.9235    1.5035
C  4.4510    0.5220    0.8907
H  4.8352    0.6734    1.8971
C  5.3110    0.1894    -0.1652
O  7.5419    -0.2634    -0.8892
C  6.7796    0.0252    0.0191
O  7.1231    0.2366    1.3137
O  0.4041    0.9315    0.2103
O  0.6126    0.4563    -2.0235
C  8.5202    0.1067    1.6172
H  8.7146    0.7265    2.4987
H  9.1431    0.4982    0.8048
C  8.8554    -1.3401    1.9269
H  8.6693    -1.9810    1.0593
H  8.2257    -1.7149    2.7406
H  9.9049    -1.4415    2.2172
C  -9.5442    0.0264    -0.4903
C  -6.2763    -1.8467    0.0077
H  -5.9358    -2.8655    0.1879
C  -7.6469    -1.5950    -0.1175
H  -8.3476    -2.4226    -0.0320
C  -8.1022    -0.2920    -0.3507
C  -7.1777    0.7550    -0.4580
H  -7.5214    1.7721    -0.6409
C  -5.8069    0.5032    -0.3329
H  -5.1117    1.3346    -0.4233
C  -5.3485    -0.8005    -0.0981
O  -3.4830    -2.2587    0.2261
C  -3.9029    -1.1272    0.0438
O  -3.1462    -0.0060    -0.0508
O  -10.3311    -1.0571    -0.3741
O  -10.0123    1.1320    -0.6886
C  -1.7356    -0.2416    0.0530
H  -1.4050    -0.8686    -0.7829
H  -1.5058    -0.7671    0.9881
C  -1.0103    1.0992    0.0339
H  -1.2344    1.6640    -0.8799
H  -1.3695    1.7223    0.8610
H  -11.2386    -0.7038    -0.4873


