%chk=PET_00035_gaussian.chk
%nproc=4
%mem=4000Mb
#p 6-31g* mp2

Conformer number 00035. Energy MM = 73.649 kcal/mol

0 1
C  1.0921    1.1066    -0.5259
C  4.3570    -0.4591    0.6682
H  4.6775    -1.3099    1.2654
C  2.9858    -0.2486    0.4759
H  2.2816    -0.9432    0.9281
C  2.5370    0.8369    -0.2891
C  3.4747    1.7073    -0.8608
H  3.1443    2.5545    -1.4604
C  4.8441    1.4972    -0.6683
H  5.5579    2.1844    -1.1207
C  5.2942    0.4132    0.0974
O  7.5916    0.9869    -0.2179
C  6.7626    0.2358    0.2701
O  7.0237    -0.8582    1.0277
O  0.3223    0.2083    0.1371
O  0.6826    2.0225    -1.2206
C  8.4121    -1.1349    1.2657
H  8.9847    -0.2109    1.4063
H  8.4699    -1.6950    2.2048
C  8.9790    -1.9737    0.1358
H  10.0206    -2.2403    0.3356
H  8.9326    -1.4342    -0.8155
H  8.3968    -2.8924    0.0096
C  -9.5594    -0.2133    -0.5467
C  -6.0664    -1.3482    -1.3919
H  -5.5831    -1.9375    -2.1700
C  -7.4500    -1.1509    -1.4425
H  -8.0245    -1.5884    -2.2576
C  -8.0904    -0.3960    -0.4524
C  -7.3366    0.1602    0.5889
H  -7.8166    0.7500    1.3669
C  -5.9516    -0.0374    0.6397
H  -5.3900    0.4056    1.4590
C  -5.3088    -0.7932    -0.3510
O  -3.2606    -1.6887    -1.1976
C  -3.8398    -1.0342    -0.3460
O  -3.2570    -0.4270    0.7175
O  -10.0574    0.5300    0.4567
O  -10.2791    -0.6663    -1.4169
C  -1.8367    -0.6049    0.8213
H  -1.5464    -1.6394    0.5984
H  -1.5645    -0.4421    1.8705
C  -1.0867    0.3874    -0.0601
H  -1.3333    0.2259    -1.1157
H  -1.3821    1.4091    0.2088
H  -11.0187    0.5671    0.2667


