%chk=PET_00022_gaussian.chk
%nproc=4
%mem=4000Mb
#p 6-31g* mp2

Conformer number 00022. Energy MM = 72.171 kcal/mol

0 1
C  0.0337    -2.0912    -0.1250
C  3.5260    -0.6918    -0.7292
H  4.3844    -0.8790    -1.3732
C  2.3874    -1.4961    -0.8542
H  2.3880    -2.2923    -1.5950
C  1.2733    -1.2716    -0.0350
C  1.3132    -0.2350    0.9084
H  0.4556    -0.0482    1.5538
C  2.4519    0.5690    1.0336
H  2.4526    1.3646    1.7753
C  3.5660    0.3446    0.2142
O  5.7778    0.9911    -0.4123
C  4.8036    1.1680    0.3014
O  4.6788    2.1152    1.2635
O  0.1589    -3.0392    -1.0856
O  -0.9432    -1.9005    0.5811
C  5.8150    2.9734    1.4456
H  6.7547    2.4222    1.3247
H  5.7828    3.3312    2.4798
C  5.7364    4.1530    0.4949
H  6.5664    4.8445    0.6653
H  4.7933    4.6927    0.6292
H  5.7671    3.8203    -0.5475
C  -5.9129    2.6579    0.7350
C  -3.5133    0.2256    -0.9301
H  -2.5590    0.2555    -1.4505
C  -4.0675    1.4234    -0.4642
H  -3.5363    2.3561    -0.6396
C  -5.2880    1.4141    0.2227
C  -5.9494    0.1995    0.4422
H  -6.8968    0.1783    0.9782
C  -5.3949    -0.9971    -0.0229
H  -5.9174    -1.9349    0.1594
C  -4.1757    -0.9910    -0.7144
O  -4.1256    -3.3741    -0.9165
C  -3.6279    -2.2919    -1.1859
O  -2.5292    -2.0983    -1.9588
O  -5.1838    3.7561    0.4692
O  -6.9691    2.7307    1.3350
C  -1.8748    -3.3001    -2.3986
H  -2.6135    -4.0320    -2.7451
H  -1.2611    -3.0183    -3.2609
C  -0.9888    -3.8859    -1.2996
H  -0.5996    -4.8556    -1.6264
H  -1.5339    -4.0491    -0.3637
H  -5.7100    4.4853    0.8596


