%chk=PET_00038_gaussian.chk
%nproc=4
%mem=4000Mb
#p 6-31g* mp2

Conformer number 00038. Energy MM = 74.378 kcal/mol

0 1
C  1.1122    -0.3393    -0.9439
C  4.3963    -0.3728    0.9927
H  4.7377    -0.5677    2.0069
C  3.0292    -0.4819    0.7087
H  2.3490    -0.7598    1.5107
C  2.5541    -0.2381    -0.5874
C  3.4615    0.1145    -1.5954
H  3.1105    0.3059    -2.6087
C  4.8268    0.2237    -1.3116
H  5.5167    0.4989    -2.1082
C  5.3031    -0.0191    -0.0162
O  7.5673    0.4281    -0.6328
C  6.7657    0.1118    0.2315
O  7.0552    -0.1632    1.5274
O  0.3714    -0.6559    0.1459
O  0.6825    -0.1467    -2.0687
C  8.4416    -0.0732    1.8890
H  8.5913    -0.7355    2.7480
H  9.0887    -0.4392    1.0836
C  8.7889    1.3518    2.2770
H  9.8280    1.4205    2.6110
H  8.6472    2.0344    1.4331
H  8.1347    1.7011    3.0825
C  -9.5447    -0.3142    0.2125
C  -6.2359    -0.7253    -1.5442
H  -5.8758    -1.1363    -2.4865
C  -7.6036    -0.7696    -1.2558
H  -8.2890    -1.2140    -1.9759
C  -8.0865    -0.2453    -0.0507
C  -7.1913    0.3240    0.8637
H  -7.5481    0.7375    1.8046
C  -5.8221    0.3681    0.5751
H  -5.1487    0.8174    1.3015
C  -5.3367    -0.1572    -0.6308
O  -3.4525    -0.5766    -2.0377
C  -3.8915    -0.1372    -0.9883
O  -3.1596    0.4163    0.0089
O  -9.8860    0.2217    1.3974
O  -10.3810    -0.7933    -0.5300
C  -1.7472    0.5258    -0.2389
H  -1.3515    1.2374    0.4946
H  -1.5656    0.9742    -1.2227
C  -1.0391    -0.8195    -0.0831
H  -1.4417    -1.3489    0.7879
H  -1.2128    -1.4772    -0.9429
H  -10.8593    0.1089    1.4339


