%chk=PET_00020_gaussian.chk
%nproc=4
%mem=4000Mb
#p 6-31g* mp2

Conformer number 00020. Energy MM = 73.417 kcal/mol

0 1
C  1.0657    0.7406    0.5041
C  4.3417    -0.9710    -0.4210
H  4.6810    -1.8975    -0.8825
C  2.9689    -0.7425    -0.2718
H  2.2714    -1.4990    -0.6235
C  2.5126    0.4433    0.3188
C  3.4446    1.3953    0.7555
H  3.1057    2.3229    1.2152
C  4.8173    1.1668    0.6061
H  5.5155    1.9243    0.9549
C  5.2739    -0.0193    0.0163
O  7.1343    -1.3508    -0.6686
C  6.7212    -0.3173    -0.1676
O  7.4809    0.7050    0.2972
O  0.3036    -0.2882    0.0576
O  0.6494    1.7758    0.9987
C  8.9007    0.5350    0.1713
H  9.3400    1.5370    0.1285
H  9.1604    0.0293    -0.7659
C  9.4465    -0.2105    1.3746
H  9.1795    0.3079    2.3014
H  9.0215    -1.2171    1.4391
H  10.5354    -0.2941    1.3179
C  -9.5984    -0.2031    -0.1136
C  -5.9478    -1.0378    0.3296
H  -5.3404    -1.5623    1.0637
C  -7.3278    -0.9434    0.5412
H  -7.7656    -1.3934    1.4312
C  -8.1416    -0.2757    -0.3831
C  -7.5659    0.2983    -1.5227
H  -8.1796    0.8214    -2.2529
C  -6.1861    0.2038    -1.7345
H  -5.7518    0.6554    -2.6255
C  -5.3691    -0.4638    -0.8108
O  -3.3858    -0.0480    -2.0781
C  -3.9080    -0.5329    -1.0875
O  -3.2617    -1.1925    -0.0946
O  -10.2725    0.4624    -1.0673
O  -10.1676    -0.6786    0.8511
C  -1.8433    -1.3249    -0.2688
H  -1.5914    -1.5877    -1.3040
H  -1.5193    -2.1776    0.3390
C  -1.1078    -0.0680    0.1823
H  -1.3668    0.1519    1.2253
H  -1.4024    0.7902    -0.4324
H  -11.2041    0.4326    -0.7632


