%chk=PET_00030_gaussian.chk
%nproc=4
%mem=4000Mb
#p 6-31g* mp2

Conformer number 00030. Energy MM = 72.562 kcal/mol

0 1
C  1.0370    0.7436    0.1106
C  4.3921    -0.8904    -0.6566
H  4.7874    -1.7069    -1.2597
C  3.0175    -0.6274    -0.6765
H  2.3749    -1.2481    -1.2972
C  2.4896    0.4185    0.0918
C  3.3517    1.1958    0.8779
H  2.9571    2.0130    1.4804
C  4.7262    0.9327    0.8976
H  5.3697    1.5535    1.5170
C  5.2546    -0.1133    0.1295
O  7.1833    -1.3437    -0.5559
C  6.7076    -0.4388    0.1108
O  7.3947    0.4031    0.9215
O  0.3468    -0.0999    -0.6947
O  0.5571    1.6473    0.7758
C  8.8122    0.1865    0.9886
H  9.1483    0.5684    1.9582
H  9.0541    -0.8823    0.9623
C  9.5097    0.9419    -0.1269
H  9.2585    2.0068    -0.0855
H  10.5951    0.8319    -0.0502
H  9.1898    0.5772    -1.1081
C  -9.5803    0.0515    -0.5281
C  -6.2265    -1.5143    -1.2379
H  -5.8372    -2.3305    -1.8448
C  -7.5985    -1.2435    -1.2535
H  -8.2579    -1.8511    -1.8713
C  -8.1191    -0.1989    -0.4800
C  -7.2573    0.5729    0.3095
H  -7.6432    1.3885    0.9173
C  -5.8839    0.3019    0.3252
H  -5.2367    0.9162    0.9474
C  -5.3609    -0.7436    -0.4490
O  -3.4328    -1.9773    -1.1383
C  -3.9095    -1.0742    -0.4702
O  -3.2157    -0.2353    0.3370
O  -9.9594    1.0765    0.2549
O  -10.3887    -0.5741    -1.1882
C  -1.8022    -0.4792    0.4131
H  -1.4514    -0.0360    1.3510
H  -1.5900    -1.5526    0.4965
C  -1.0673    0.1393    -0.7737
H  -1.4152    -0.3067    -1.7114
H  -1.2826    1.2119    -0.8595
H  -10.9301    1.1250    0.1255


