%chk=PET_00011_gaussian.chk
%nproc=4
%mem=4000Mb
#p 6-31g* mp2

Conformer number 00011. Energy MM = 74.080 kcal/mol

0 1
C  1.0521    -0.5884    0.4270
C  4.4151    -0.0032    -1.2657
H  4.8121    0.1574    -2.2673
C  3.0376    -0.1836    -1.0954
H  2.3945    -0.1598    -1.9721
C  2.5078    -0.3917    0.1848
C  3.3713    -0.4180    1.2890
H  2.9749    -0.5802    2.2907
C  4.7487    -0.2378    1.1186
H  5.3927    -0.2635    1.9948
C  5.2788    -0.0290    -0.1615
O  7.2099    0.3606    -1.5112
C  6.7346    0.1694    -0.4033
O  7.4238    0.1099    0.7627
O  0.3597    -0.5181    -0.7356
O  0.5748    -0.7751    1.5336
C  8.8446    0.2849    0.6577
H  9.2941    -0.2294    1.5135
H  9.2394    -0.1907    -0.2475
C  9.1944    1.7603    0.7080
H  10.2786    1.9028    0.6881
H  8.7558    2.2971    -0.1390
H  8.7941    2.2195    1.6179
C  -9.5316    -0.0347    -1.0955
C  -6.3038    -1.0497    0.6326
H  -5.9742    -1.7270    1.4195
C  -7.6618    -0.9950    0.3008
H  -8.3639    -1.6311    0.8353
C  -8.1033    -0.1294    -0.7069
C  -7.1775    0.6796    -1.3784
H  -7.5106    1.3572    -2.1632
C  -5.8192    0.6250    -1.0465
H  -5.1230    1.2654    -1.5830
C  -5.3746    -0.2415    -0.0383
O  -3.5387    -1.0855    1.2351
C  -3.9426    -0.3426    0.3564
O  -3.1789    0.4848    -0.3976
O  -10.3217    -0.8553    -0.3819
O  -9.9868    0.6911    -1.9597
C  -1.7760    0.5014    -0.0823
H  -1.3589    1.4053    -0.5404
H  -1.6274    0.6151    0.9980
C  -1.0588    -0.7307    -0.6324
H  -1.4213    -0.9466    -1.6438
H  -1.2696    -1.6280    -0.0388
H  -11.2197    -0.6890    -0.7386


