%chk=PET_00039_gaussian.chk
%nproc=4
%mem=4000Mb
#p 6-31g* mp2

Conformer number 00039. Energy MM = 73.493 kcal/mol

0 1
C  1.0733    0.8637    0.2624
C  4.3298    -1.0757    -0.1269
H  4.6585    -2.0972    -0.3142
C  2.9596    -0.7982    -0.0596
H  2.2534    -1.6135    -0.1982
C  2.5169    0.5093    0.1799
C  3.4599    1.5330    0.3489
H  3.1316    2.5550    0.5341
C  4.8300    1.2554    0.2813
H  5.5370    2.0709    0.4168
C  5.2730    -0.0522    0.0429
O  7.1181    -1.5434    -0.2311
C  6.7170    -0.4069    -0.0379
O  7.4885    0.6945    0.1349
O  0.2991    -0.2384    0.1057
O  0.6691    1.9996    0.4521
C  8.9064    0.4792    0.0739
H  9.1642    -0.2681    -0.6854
H  9.3601    1.4253    -0.2389
C  9.4346    0.0874    1.4410
H  8.9949    -0.8573    1.7761
H  9.1698    0.8441    2.1868
H  10.5226    -0.0219    1.4198
C  -9.6077    -0.0601    -0.2781
C  -5.9630    -0.7987    0.5129
H  -5.3660    -1.0987    1.3711
C  -7.3433    -0.6329    0.6781
H  -7.7844    -0.8071    1.6572
C  -8.1418    -0.2476    -0.4061
C  -7.5510    -0.0291    -1.6566
H  -8.1605    0.2711    -2.5075
C  -6.1721    -0.1946    -1.8216
H  -5.7276    -0.0204    -2.8006
C  -5.3697    -0.5802    -0.7386
O  -3.3721    -0.5593    -2.0510
C  -3.9080    -0.7415    -0.9700
O  -3.2779    -1.1055    0.1744
O  -10.0563    -0.2966    0.9670
O  -10.3643    0.2703    -1.1718
C  -1.8605    -1.2987    0.0583
H  -1.5531    -1.9526    0.8825
H  -1.6057    -1.8421    -0.8604
C  -1.1097    0.0250    0.1500
H  -1.3876    0.6821    -0.6819
H  -1.3724    0.5292    1.0881
H  -11.0215    -0.1360    0.9032


